ID C:\Users\Dima\Programs\Bc,FEMAP
SOL SESTATICS
TIME 10000
CEND
  ECHO = NONE
  DISPLACEMENT(PLOT) = ALL
  SPCFORCE(PLOT) = ALL
  OLOAD(PLOT) = ALL
  FORCE(PLOT,CORNER) = ALL
  STRESS(PLOT,CORNER) = ALL
BEGIN BULK
$ ***************************************************************************
$   Written by : FEMAP
$   Version    : 7.00
$   Translator : MSC/NASTRAN
$   From Model : C:\Users\Dima\Programs\Bcm_all\Exe\Seepage\Solid\Seepage.mod
$   Date       : Fri Apr 12 23:09:51 2013
$ ***************************************************************************
$
PARAM,POST,-1
PARAM,OGEOM,NO
PARAM,AUTOSPC,YES
PARAM,GRDPNT,0
CORD2C         1       0      0.      0.      0.      0.      0.      1.+FEMAPC1
+FEMAPC1      1.      0.      1.
CORD2S         2       0      0.      0.      0.      0.      0.      1.+FEMAPC2
+FEMAPC2      1.      0.      1.
$ FEMAP Property 1 : Untitled
PSOLID         1       1       0        
$ FEMAP Material 1 : Untitled
MAT1           1                              0.      0.      0.        
GRID           1       0     0.5-8.47E-2      0.       0        
GRID           2       0 0.29233-0.14031      0.       0        
GRID           3       0  0.3925-9.88E-2      0.       0        
GRID           4       0 0.10316-0.10316      0.       0        
GRID           5       0     0.5-4.04E-20.040381       0        
GRID           6       0 0.36758-0.05002 0.05002       0        
GRID           7       0 0.24071-7.85E-20.078532       0        
GRID           8       0      0.      0.     0.5       0        
GRID           9       0      0.      0.    0.25       0        
GRID          10       0 0.14031      0. 0.29233       0        
GRID          11       00.040381-4.04E-2     0.5       0        
GRID          12       0 0.20632-0.20632      0.       0        
GRID          13       00.078532-0.240710.078532       0        
GRID          14       0      0.    -0.5      0.       0        
GRID          15       0      0.   -0.25      0.       0        
GRID          16       0      0.  -0.125      0.       0        
GRID          17       0 0.14031-0.29233      0.       0        
GRID          18       00.098821 -0.3925      0.       0        
GRID          19       00.084669    -0.5      0.       0        
GRID          20       0 0.05002-0.36758 0.05002       0        
$ ... 125 like lines cut
CTETRA         1       1       7      24      21       4                        
CTETRA         2       1       6       5      33      61                        
CTETRA         3       1       1       5      33       6                        
CTETRA         4       1       7      63      62       4                        
CTETRA         5       1       6       2      62       3                        
CTETRA         6       1       4       2      24      12                        
CTETRA         7       1      61       5      33      41                        
CTETRA         8       1       7       4      21      63                        
CTETRA         9       1       6       3      62      61                        
CTETRA        10       1      21       4      97      63                        
CTETRA        11       1       7       2      24       4                        
CTETRA        12       1       6       2       7      62                        
CTETRA        13       1       7       2       4      62                        
CTETRA        14       1      41       5      33       1                        
CTETRA        15       1       1      33       3       6                        
CTETRA        16       1       6      33       3      61                        
CTETRA        17       1      61      33       3      41                        
CTETRA        18       1      41      33       3       1                        
CTETRA        19       1      29      48      28      21                        
CTETRA        20       1      28      10      24      46                        
$ ... 368 like lines cut
ENDDATA
