ID C:\Users\Dima\Lame3d2\Mpl,FEMAP
SOL SESTATICS
TIME 10000
CEND
  ECHO = NONE
  DISPLACEMENT(PLOT) = ALL
  SPCFORCE(PLOT) = ALL
  OLOAD(PLOT) = ALL
  FORCE(PLOT,CORNER) = ALL
  STRESS(PLOT,CORNER) = ALL
BEGIN BULK
$ ***************************************************************************
$   Written by : FEMAP
$   Version    : 7.00
$   Translator : MSC/NASTRAN
$   From Model : C:\Users\Dima\Lame3d2\Mpls_all\Exe\Box3d_homog\Solid\model1.MOD
$   Date       : Thu Jun 24 22:33:11 2010
$ ***************************************************************************
$
PARAM,POST,-1
PARAM,OGEOM,NO
PARAM,AUTOSPC,YES
PARAM,GRDPNT,0
CORD2C         1       0      0.      0.      0.      0.      0.      1.+FEMAPC1
+FEMAPC1      1.      0.      1.
CORD2S         2       0      0.      0.      0.      0.      0.      1.+FEMAPC2
+FEMAPC2      1.      0.      1.
$ FEMAP Property 1 : Matrix
PSOLID         1       1       0        
$ FEMAP Property 2 : Inclusion
PSOLID         2       1       0        
$ FEMAP Property 3 : Interphase
PSOLID         3       1       0        
$ FEMAP Property 4 : Untitled
PSOLID         4       1       0        
$ FEMAP Material 1 : Untitled
MAT1           1                              0.      0.      0.        
GRID           3       0      0.  -30.75   -123.       0        
GRID           4       0      0. -46.125   -123.       0        
GRID           5       0      0.   -61.5   -123.       0        
GRID           6       0      0. -76.875   -123.       0        
GRID           8       0      0.-107.625   -123.       0        
GRID          10       0 -15.375   -123.   -123.       0        
GRID          12       0 -46.125   -123.   -123.       0        
GRID          13       0   -61.5   -123.   -123.       0        
GRID          15       0  -92.25   -123.   -123.       0        
GRID          17       0   -123.   -123.   -123.       0        
GRID          18       0   -123.-107.625   -123.       0        
GRID          21       0   -123.   -61.5   -123.       0        
GRID          25       0   -123.      0.   -123.       0        
GRID          26       0-107.625      0.   -123.       0        
GRID          28       0 -76.875      0.   -123.       0        
GRID          31       0  -30.75      0.   -123.       0        
GRID          32       0 -15.375      0.   -123.       0        
GRID          33       0 -15.375 -15.375   -123.       0        
GRID          34       0 -15.375  -30.75   -123.       0        
GRID          35       0 -15.375 -46.125   -123.       0        
$ ... 296 like lines cut
GRID         422       0 -2.E-15-53.7416-81.8638       0        
GRID         423       0 -1.E-15-52.4749-97.4243       0        
GRID         424       0      0.-49.2765-112.773       0        
GRID         425       0      0.-40.2304-104.159       0        
GRID         426       0      0.-28.0385-98.2475       0        
GRID         427       0      0.-14.1451-87.0972       0        
GRID         428       0-1.7E-15-27.7795-80.8634       0        
GRID         429       0-3.1E-15-28.4304-65.6323       0        
GRID         430       0-1.5E-15-40.5764-89.3632       0        
GRID         431       0-2.7E-15-41.1294-73.6397       0        
GRID         432       0-1.4E-15-14.3166-71.2153       0        
GRID         433       0      0.-14.7194-105.015       0        
GRID         434       0      0.-79.5456-99.0447       0        
GRID         435       0      0.-64.5464-106.063       0        
GRID         436       0-1.3E-15-66.4041-90.3404       0        
GRID         437       0      0.-78.0161-113.806       0        
GRID         438       0      0. -93.344-108.729       0        
GRID         439       0-3.5E-15-67.7854-58.2657       0        
GRID         440       0-2.8E-15-81.5004-51.0992       0        
GRID         441       0-1.7E-15-95.0786-44.5259       0        
GRID         442       0      0.-108.207-37.2995       0        
GRID         443       0-1.0E-15-94.8314 -75.971       0        
$ ... 7 like lines cut
GRID         451       0 -5.E-15-67.7376-41.4925       0        
GRID         452       0-5.6E-15-54.3595 -49.386       0        
GRID         453       0-2.1E-15-83.7867-17.3079       0        
GRID         454       0-1.7E-15-94.7165 -30.588       0        
GRID         455       0      0.-104.499-18.7612       0        
GRID         456       0-3.7E-15-69.2585-11.6006       0        
GRID         463       0    -35.4.29E-15      0.       0        
GRID         464       0-33.80744.14E-15-9.05867       0        
GRID         501       0-21.4432-21.4387-17.4806       0        
GRID         502       0-28.3031 -10.869-17.4871       0        
GRID         504       0-21.7143-11.8955-24.7383       0        
GRID         506       0 -27.555-19.5941-9.04402       0        
GRID         507       0-32.3478-9.83323 -9.0513       0        
GRID         512       0   -17.5-30.3109      0.       0        
GRID         513       0-24.7487-24.7487      0.       0        
GRID         514       0-30.3109   -17.5      0.       0        
GRID         515       0-33.8074-9.05867      0.       0        
GRID         519       0-30.31093.71E-15   -17.5       0        
GRID         522       0-9.058671.11E-15-33.8074       0        
GRID         524       0-6.4E-15    -35.      0.       0        
GRID         526       0-1.7E-15-9.05867-33.8074       0        
$ ... 161 like lines cut
CTETRA      1039       1     699     593     700     701                        
CTETRA      1040       1     699     701     702     703                        
CTETRA      1041       1     699     704     701     703                        
CTETRA      1042       1     699     701     704     564                        
CTETRA      1043       1     699     701     564     593                        
CTETRA      1044       1     699     702     700     705                        
CTETRA      1045       1     706     707     596     592                        
CTETRA      1046       1     706     702     700     708                        
CTETRA      1047       1     706     709     707     705                        
CTETRA      1048       1     706     560     700     705                        
CTETRA      1049       1     706     700     710     708                        
CTETRA      1050       1     706     710     596     707                        
CTETRA      1051       1     706     708     710     711                        
CTETRA      1052       1     700     712     713     714                        
CTETRA      1053       1     700     710     599     560                        
CTETRA      1054       1     700     559     713     593                        
CTETRA      1055       1     192     715     121     716                        
CTETRA      1056       1     717     268     269     276                        
CTETRA      1057       1     709     718     719     720                        
CTETRA      1058       1     716     721     722     707                        
$ ... 1747 like lines cut
ENDDATA
