ID C:\Users\Dima\Lame3d2\Mpl,FEMAP
SOL SESTATICS
TIME 10000
CEND
  ECHO = NONE
  DISPLACEMENT(PLOT) = ALL
  SPCFORCE(PLOT) = ALL
  OLOAD(PLOT) = ALL
  FORCE(PLOT,CORNER) = ALL
  STRESS(PLOT,CORNER) = ALL
BEGIN BULK
$ ***************************************************************************
$   Written by : FEMAP
$   Version    : 7.00
$   Translator : MSC/NASTRAN
$   From Model : C:\Users\Dima\Lame3d2\Mpls_all\Exe\Box3d_homog\Solid\model1.MOD
$   Date       : Thu Jun 24 22:43:32 2010
$ ***************************************************************************
$
PARAM,POST,-1
PARAM,OGEOM,NO
PARAM,AUTOSPC,YES
PARAM,GRDPNT,0
CORD2C         1       0      0.      0.      0.      0.      0.      1.+FEMAPC1
+FEMAPC1      1.      0.      1.
CORD2S         2       0      0.      0.      0.      0.      0.      1.+FEMAPC2
+FEMAPC2      1.      0.      1.
$ FEMAP Property 1 : Matrix
PSOLID         1       1       0        
$ FEMAP Property 2 : Inclusion
PSOLID         2       1       0        
$ FEMAP Property 3 : Interphase
PSOLID         3       1       0        
$ FEMAP Property 4 : Untitled
PSOLID         4       1       0        
$ FEMAP Material 1 : Untitled
MAT1           1                              0.      0.      0.        
GRID           5       0      0.   -61.5   -123.       0        
GRID           8       0      0.-107.625   -123.       0        
GRID          10       0 -15.375   -123.   -123.       0        
GRID          12       0 -46.125   -123.   -123.       0        
GRID          13       0   -61.5   -123.   -123.       0        
GRID          15       0  -92.25   -123.   -123.       0        
GRID          17       0   -123.   -123.   -123.       0        
GRID          18       0   -123.-107.625   -123.       0        
GRID          21       0   -123.   -61.5   -123.       0        
GRID          31       0  -30.75      0.   -123.       0        
GRID          33       0 -15.375 -15.375   -123.       0        
GRID          34       0 -15.375  -30.75   -123.       0        
GRID          35       0 -15.375 -46.125   -123.       0        
GRID          36       0 -15.375   -61.5   -123.       0        
GRID          37       0 -15.375 -76.875   -123.       0        
GRID          38       0 -15.375  -92.25   -123.       0        
GRID          39       0 -15.375-107.625   -123.       0        
GRID          40       0  -30.75 -15.375   -123.       0        
GRID          41       0  -30.75  -30.75   -123.       0        
GRID          42       0  -30.75 -46.125   -123.       0        
$ ... 206 like lines cut
GRID         422       0 -2.E-15-53.7416-81.8638       0        
GRID         423       0 -1.E-15-52.4749-97.4243       0        
GRID         426       0      0.-28.0385-98.2475       0        
GRID         431       0-2.7E-15-41.1294-73.6397       0        
GRID         433       0      0.-14.7194-105.015       0        
GRID         439       0-3.5E-15-67.7854-58.2657       0        
GRID         440       0-2.8E-15-81.5004-51.0992       0        
GRID         441       0-1.7E-15-95.0786-44.5259       0        
GRID         442       0      0.-108.207-37.2995       0        
GRID         443       0-1.0E-15-94.8314 -75.971       0        
GRID         444       0      0.-108.938-68.6703       0        
GRID         446       0-1.5E-15-95.0984-60.0829       0        
GRID         447       0-2.0E-15-81.2273-67.1808       0        
GRID         449       0-5.7E-15-68.7827-25.1619       0        
GRID         450       0-3.2E-15-81.9492-35.0321       0        
GRID         451       0 -5.E-15-67.7376-41.4925       0        
GRID         452       0-5.6E-15-54.3595 -49.386       0        
GRID         456       0-3.7E-15-69.2585-11.6006       0        
GRID         464       0-33.80744.14E-15-9.05867       0        
GRID         501       0-21.4432-21.4387-17.4806       0        
GRID         502       0-28.3031 -10.869-17.4871       0        
GRID         504       0-21.7143-11.8955-24.7383       0        
GRID         506       0 -27.555-19.5941-9.04402       0        
GRID         507       0-32.3478-9.83323 -9.0513       0        
GRID         512       0   -17.5-30.3109      0.       0        
GRID         514       0-30.3109   -17.5      0.       0        
GRID         522       0-9.058671.11E-15-33.8074       0        
GRID         530       0-6.2E-15-33.8074-9.05867       0        
GRID         531       0-10.8731-28.3016-17.4871       0        
GRID         534       0-11.8986-21.7126-24.7383       0        
GRID         536       0-12.3792-12.3783-30.3073       0        
GRID         539       0-9.83554-32.3471 -9.0513       0        
GRID         540       0-19.5981-27.5521-9.04402       0        
GRID         544       0    -30.-51.9615      0.       0        
GRID         554       0    -30.3.67E-15-51.9615       0        
GRID         556       0-51.96156.36E-15    -30.       0        
$ ... 737 like lines cut
GRID        1580       0-58.1672 -4.E-15-41.7962       0        
GRID        1581       0-58.2657-1.9E-15-67.7854       0        
GRID        1582       0-51.0992-1.3E-15-81.5004       0        
GRID        1585       0 -75.971      0.-94.8314       0        
GRID        1586       0-68.6703      0.-108.938       0        
GRID        1587       0-84.5496      0.-108.735       0        
GRID        1591       0-35.0321-1.2E-15-81.9492       0        
GRID        1593       0-17.3079      0.-83.7867       0        
GRID        1594       0 -30.588      0.-94.7165       0        
GRID        1595       0-18.7612      0.-104.499       0        
GRID        1596       0-11.6006      0.-69.2585       0        
GRID        1597       0 -49.386-3.2E-15-54.3595       0        
GRID        1599       0-112.773      0.-49.2765       0        
GRID        1601       0-81.8638-1.6E-15-53.7416       0        
GRID        1604       0-113.806      0.-78.0161       0        
GRID        1607       0-87.0972      0.-14.1451       0        
GRID        1608       0-98.2475      0.-28.0385       0        
GRID        1610       0-105.015      0.-14.7194       0        
GRID        1611       0-80.8634-2.0E-15-27.7795       0        
GRID        1612       0-65.6323 -4.E-15-28.4304       0        
GRID        1614       0-73.6397-2.6E-15-41.1294       0        
GRID        1619       0      0.    123.  -30.75       0        
GRID        1620       0      0.    123.   -61.5       0        
GRID        1623       0      0.   92.25   -123.       0        
GRID        1624       0      0.  15.375   -123.       0        
GRID        1630       0-4.7E-15 41.7962-58.1672       0        
GRID        1632       0-2.2E-15 67.3828-74.4668       0        
GRID        1633       0-1.3E-15 80.6275-83.1912       0        
GRID        1638       0      0. 49.2765-112.773       0        
GRID        1640       0      0. 28.0385-98.2475       0        
GRID        1641       0      0. 14.1451-87.0972       0        
GRID        1643       0-3.1E-15 28.4304-65.6323       0        
GRID        1644       0-1.5E-15 40.5764-89.3632       0        
GRID        1645       0-2.7E-15 41.1294-73.6397       0        
GRID        1646       0-1.4E-15 14.3166-71.2153       0        
GRID        1648       0      0. 79.5456-99.0447       0        
GRID        1649       0      0. 64.5464-106.063       0        
GRID        1651       0      0. 78.0161-113.806       0        
GRID        1653       0-3.5E-15 67.7854-58.2657       0        
GRID        1655       0-1.7E-15 95.0786-44.5259       0        
$ ... 5 like lines cut
GRID        1665       0 -5.E-15 67.7376-41.4925       0        
GRID        1666       0-5.6E-15 54.3595 -49.386       0        
GRID        1673       0-21.4432 21.4387-17.4806       0        
GRID        1674       0-28.3031  10.869-17.4871       0        
GRID        1675       0-21.7143 11.8955-24.7383       0        
GRID        1676       0 -27.555 19.5941-9.04402       0        
GRID        1677       0-32.3478 9.83323 -9.0513       0        
GRID        1678       0   -17.5 30.3109      0.       0        
GRID        1682       0-30.3109-3.7E-15   -17.5       0        
GRID        1687       0-10.8731 28.3016-17.4871       0        
GRID        1688       0-11.8986 21.7126-24.7383       0        
GRID        1689       0-12.3792 12.3783-30.3073       0        
GRID        1690       0-9.83554 32.3471 -9.0513       0        
GRID        1691       0-19.5981 27.5521-9.04402       0        
GRID        1698       0-18.6135 48.4753-30.0614       0        
GRID        1699       0-36.7047 36.7047-30.0921       0        
GRID        1700       0-37.1648 20.3598-42.4765       0        
GRID        1701       0-21.1915 21.1915-51.9793       0        
GRID        1702       0-55.4428 16.8486-15.5634       0        
GRID        1703       0-16.8486 55.4428-15.5634       0        
GRID        1707       0-57.9555-7.1E-15-15.5291       0        
$ ... 23 like lines cut
GRID        1744       0-24.7487 -3.E-15-24.7487       0        
GRID        1745       0-14.2832-1.7E-15-24.3796       0        
GRID        1746       0-20.1084-2.1E-15-15.5312       0        
GRID        1750       0      0.    17.5      0.       0        
GRID        1751       0-2.5E-15 14.2832-24.3796       0        
GRID        1752       0-3.1E-15 20.1084-15.5312       0        
GRID        1753       0  -49.72 37.0443-62.3534       0        
GRID        1754       0-38.5444 53.8685-41.2507       0        
GRID        1755       0 -39.512 52.5448-70.5575       0        
GRID        1756       0 -61.502  61.502 -61.502       0        
GRID        1757       0-54.9467 50.5495-83.4289       0        
GRID        1758       0-43.6533 20.0315-75.2896       0        
GRID        1759       0-70.8643 40.4315-52.3191       0        
GRID        1760       0-62.6964 50.2585-37.1038       0        
GRID        1761       0-75.2896 43.6533-20.0315       0        
GRID        1762       0-54.2757 71.1211-40.2691       0        
GRID        1763       0-82.8569 55.8457-50.9411       0        
GRID        1764       0-54.3902 59.5209-19.3234       0        
GRID        1765       0-74.2432 66.8744-40.0256       0        
GRID        1766       0-40.5796 72.8411 -66.423       0        
GRID        1767       0-19.4809 53.9534-60.2794       0        
$ ... 319 like lines cut
GRID        2139       0 65.6323 -4.E-15-28.4304       0        
GRID        2142       0 71.2153-2.3E-15-14.3166       0        
GRID        2145       0      0.    123. -15.375       0        
GRID        2148       0      0.    123. -76.875       0        
GRID        2149       0      0.    123.-107.625       0        
GRID        2155       0      0.      0.    -60.       0        
GRID        2156       05.51E-15     30.-51.9615       0        
GRID        2158       03.42E-15 54.3824-65.9636       0        
GRID        2161       0      0. 94.2502-92.1448       0        
GRID        2162       0      0. 108.332-101.383       0        
GRID        2163       01.99E-15 53.7416-81.8638       0        
GRID        2164       01.04E-15 52.4749-97.4243       0        
GRID        2166       0      0. 40.2304-104.159       0        
GRID        2169       01.67E-15 27.7795-80.8634       0        
GRID        2174       0      0. 14.7194-105.015       0        
GRID        2177       01.27E-15 66.4041-90.3404       0        
GRID        2179       0      0.  93.344-108.729       0        
GRID        2181       02.78E-15 81.5004-51.0992       0        
GRID        2184       01.03E-15 94.8314 -75.971       0        
GRID        2187       01.46E-15 95.0984-60.0829       0        
GRID        2188       02.01E-15 81.2273-67.1808       0        
$ ... 384 like lines cut
GRID        2690       0 -2.E-15-53.7416 81.8638       0        
GRID        2692       0      0.-49.2765 112.773       0        
GRID        2693       0      0.-40.2304 104.159       0        
GRID        2695       0      0.-14.1451 87.0972       0        
GRID        2696       0-1.7E-15-27.7795 80.8634       0        
GRID        2697       0-3.1E-15-28.4304 65.6323       0        
GRID        2698       0-1.5E-15-40.5764 89.3632       0        
GRID        2700       0-1.4E-15-14.3166 71.2153       0        
GRID        2701       0      0.-14.7194 105.015       0        
GRID        2704       0-1.3E-15-66.4041 90.3404       0        
GRID        2708       0-2.8E-15-81.5004 51.0992       0        
GRID        2710       0      0.-108.207 37.2995       0        
GRID        2711       0-1.0E-15-94.8314  75.971       0        
GRID        2715       0-2.0E-15-81.2273 67.1808       0        
GRID        2716       0      0.-108.898 53.0358       0        
GRID        2721       0-2.1E-15-83.7867 17.3079       0        
GRID        2723       0      0.-104.499 18.7612       0        
GRID        2725       0    -35.4.29E-15      0.       0        
GRID        2726       0-33.80744.14E-15 9.05867       0        
GRID        2727       0-21.4432-21.4387 17.4806       0        
GRID        2728       0-28.3031 -10.869 17.4871       0        
$ ... 782 like lines cut
GRID        3720       0-65.6323 -4.E-15 28.4304       0        
GRID        3721       0-89.3632-1.4E-15 40.5764       0        
GRID        3722       0-73.6397-2.6E-15 41.1294       0        
GRID        3723       0-71.2153-2.3E-15 14.3166       0        
GRID        3727       0      0.    123.   30.75       0        
GRID        3728       0      0.    123.    61.5       0        
GRID        3729       0      0.    123.  76.875       0        
GRID        3730       0      0.    123. 107.625       0        
GRID        3732       0      0.  15.375    123.       0        
GRID        3735       0      0.      0.   75.75       0        
GRID        3738       0-4.7E-15 41.7962 58.1672       0        
GRID        3744       0 -2.E-15 53.7416 81.8638       0        
GRID        3745       0 -1.E-15 52.4749 97.4243       0        
GRID        3746       0      0. 49.2765 112.773       0        
GRID        3748       0      0. 28.0385 98.2475       0        
GRID        3750       0-1.7E-15 27.7795 80.8634       0        
GRID        3752       0-1.5E-15 40.5764 89.3632       0        
GRID        3753       0-2.7E-15 41.1294 73.6397       0        
GRID        3755       0      0. 14.7194 105.015       0        
GRID        3756       0      0. 79.5456 99.0447       0        
GRID        3757       0      0. 64.5464 106.063       0        
GRID        3763       0-1.7E-15 95.0786 44.5259       0        
GRID        3764       0      0. 108.207 37.2995       0        
GRID        3766       0      0. 108.938 68.6703       0        
GRID        3767       0      0. 108.735 84.5496       0        
GRID        3770       0      0. 108.898 53.0358       0        
GRID        3771       0-5.7E-15 68.7827 25.1619       0        
GRID        3772       0-3.2E-15 81.9492 35.0321       0        
GRID        3775       0-2.1E-15 83.7867 17.3079       0        
GRID        3776       0-1.7E-15 94.7165  30.588       0        
GRID        3778       0-3.7E-15 69.2585 11.6006       0        
GRID        3781       0-21.4432 21.4387 17.4806       0        
GRID        3782       0-28.3031  10.869 17.4871       0        
$ ... 38 like lines cut
GRID        3852       0-24.7487 -3.E-15 24.7487       0        
GRID        3853       0-14.2832-1.7E-15 24.3796       0        
GRID        3856       0-4.5E-15 24.7487 24.7487       0        
GRID        3861       0  -49.72 37.0443 62.3534       0        
GRID        3862       0-38.5444 53.8685 41.2507       0        
GRID        3863       0 -39.512 52.5448 70.5575       0        
GRID        3864       0 -61.502  61.502  61.502       0        
GRID        3865       0-54.9467 50.5495 83.4289       0        
GRID        3866       0-43.6533 20.0315 75.2896       0        
GRID        3867       0-70.8643 40.4315 52.3191       0        
GRID        3868       0-62.6964 50.2585 37.1038       0        
GRID        3869       0-75.2896 43.6533 20.0315       0        
GRID        3870       0-54.2757 71.1211 40.2691       0        
GRID        3871       0-82.8569 55.8457 50.9411       0        
GRID        3872       0-54.3902 59.5209 19.3234       0        
GRID        3873       0-74.2432 66.8744 40.0256       0        
GRID        3874       0-40.5796 72.8411  66.423       0        
GRID        3875       0-19.4809 53.9534 60.2794       0        
GRID        3876       0-20.0315 75.2896 43.6533       0        
GRID        3877       0-90.0169 27.0308 15.5445       0        
GRID        3878       0-98.8836  40.723 20.1072       0        
$ ... 285 like lines cut
GRID        4247       0 65.6323 -4.E-15 28.4304       0        
GRID        4251       0      0.    91.5      0.       0        
GRID        4252       0      0.  107.25      0.       0        
GRID        4253       0      0.    123.  15.375       0        
GRID        4258       0      0.   92.25    123.       0        
GRID        4264       05.51E-15     30. 51.9615       0        
GRID        4266       03.42E-15 54.3824 65.9636       0        
GRID        4267       0 2.2E-15 67.3828 74.4668       0        
GRID        4268       01.27E-15 80.6275 83.1912       0        
GRID        4269       0      0. 94.2502 92.1448       0        
GRID        4270       0      0. 108.332 101.383       0        
GRID        4274       0      0. 40.2304 104.159       0        
GRID        4276       0      0. 14.1451 87.0972       0        
GRID        4278       03.12E-15 28.4304 65.6323       0        
GRID        4281       01.38E-15 14.3166 71.2153       0        
GRID        4285       01.27E-15 66.4041 90.3404       0        
GRID        4286       0      0. 78.0161 113.806       0        
GRID        4287       0      0.  93.344 108.729       0        
GRID        4288       03.48E-15 67.7854 58.2657       0        
GRID        4289       02.78E-15 81.5004 51.0992       0        
GRID        4292       01.03E-15 94.8314  75.971       0        
$ ... 55 like lines cut
GRID        4379       0 24.7487 -3.E-15 24.7487       0        
GRID        4380       0 14.2832-1.7E-15 24.3796       0        
GRID        4382       05.57E-15 30.3109    17.5       0        
GRID        4384       03.21E-15    17.5 30.3109       0        
GRID        4386       02.51E-15 14.2832 24.3796       0        
GRID        4387       03.14E-15 20.1084 15.5312       0        
GRID        4388       0   49.72 37.0443 62.3534       0        
GRID        4389       0 38.5444 53.8685 41.2507       0        
GRID        4390       0  39.512 52.5448 70.5575       0        
GRID        4391       0  61.502  61.502  61.502       0        
GRID        4392       0 54.9467 50.5495 83.4289       0        
GRID        4393       0 43.6533 20.0315 75.2896       0        
GRID        4394       0 70.8643 40.4315 52.3191       0        
GRID        4395       0 62.6964 50.2585 37.1038       0        
GRID        4396       0 75.2896 43.6533 20.0315       0        
GRID        4397       0 54.2757 71.1211 40.2691       0        
GRID        4398       0 82.8569 55.8457 50.9411       0        
GRID        4399       0 54.3902 59.5209 19.3234       0        
GRID        4400       0 74.2432 66.8744 40.0256       0        
GRID        4401       0 40.5796 72.8411  66.423       0        
GRID        4402       0 19.4809 53.9534 60.2794       0        
$ ... 79 like lines cut
CTETRA      1039       1     699     593     700     701                        
CTETRA      1040       1     699     701     702     703                        
CTETRA      1041       1     699     704     701     703                        
CTETRA      1042       1     699     701     704     564                        
CTETRA      1043       1     699     701     564     593                        
CTETRA      1044       1     699     702     700     705                        
CTETRA      1045       1     706     707     596     592                        
CTETRA      1046       1     706     702     700     708                        
CTETRA      1047       1     706     709     707     705                        
CTETRA      1048       1     706     560     700     705                        
CTETRA      1049       1     706     700     710     708                        
CTETRA      1050       1     706     710     596     707                        
CTETRA      1051       1     706     708     710     711                        
CTETRA      1052       1     700     712     713     714                        
CTETRA      1053       1     700     710     599     560                        
CTETRA      1054       1     700     559     713     593                        
CTETRA      1055       1     192     715    2460     716                        
CTETRA      1056       1     717     268     269     276                        
CTETRA      1057       1     709     718     719     720                        
CTETRA      1058       1     716     721     722     707                        
$ ... 14116 like lines cut
ENDDATA
