ID C:\Users\Dima\Lame3d2\Mpl,FEMAP
SOL SESTATICS
TIME 10000
CEND
  ECHO = NONE
  DISPLACEMENT(PLOT) = ALL
  SPCFORCE(PLOT) = ALL
  OLOAD(PLOT) = ALL
  FORCE(PLOT,CORNER) = ALL
  STRESS(PLOT,CORNER) = ALL
BEGIN BULK
$ ***************************************************************************
$   Written by : FEMAP
$   Version    : 7.00
$   Translator : MSC/NASTRAN
$   From Model : C:\Users\Dima\Lame3d2\Mpls_all\Exe\Box3d_homog\Solid\model2.MOD
$   Date       : Sun Nov 11 13:46:45 2007
$ ***************************************************************************
$
PARAM,POST,-1
PARAM,OGEOM,NO
PARAM,AUTOSPC,YES
PARAM,GRDPNT,0
CORD2C         1       0      0.      0.      0.      0.      0.      1.+FEMAPC1
+FEMAPC1      1.      0.      1.
CORD2S         2       0      0.      0.      0.      0.      0.      1.+FEMAPC2
+FEMAPC2      1.      0.      1.
$ FEMAP Property 1 : Matrix
PSOLID         1       1       0        
$ FEMAP Property 2 : Fulleren
PSOLID         2       1       0        
$ FEMAP Property 3 : Untitled
PSOLID         3       1       0        
$ FEMAP Material 1 : mat
MAT1           1                              0.      0.      0.        
GRID           4       0  0.3125      0.      1.       0        
GRID          12       0 0.13636      0. 0.86364       0        
GRID          21       0     0.5      0.  0.5625       0        
GRID          22       0     0.5      0.   0.625       0        
GRID          24       0     0.5      0.    0.75       0        
GRID          27       0     0.5      0.  0.9375       0        
GRID          98       0  0.4474      0. 0.89603       0        
GRID          99       0 0.38672      0. 0.88484       0        
GRID         100       0 0.30972      0. 0.87378       0        
GRID         101       0 0.24335      0. 0.84001       0        
GRID         102       0 0.43678      0. 0.83773       0        
GRID         103       0 0.41158      0. 0.79867       0        
GRID         104       0 0.39735      0. 0.76095       0        
GRID         105       0 0.38068      0. 0.70123       0        
GRID         106       0 0.44179      0. 0.72307       0        
GRID         107       0 0.44754      0. 0.78062       0        
GRID         108       0 0.46502      0. 0.61159       0        
GRID         109       0 0.42663      0.  0.6584       0        
GRID         110       0 0.36708      0.  0.8144       0        
GRID         111       0 0.33787      0. 0.74699       0        
$ ... 4241 like lines cut
CTETRA      2309       1    1491    1492    1908     155                        
CTETRA      2310       1    1491    1492     268     215                        
CTETRA      2311       1    1491    1492     158    1908                        
CTETRA      2312       1    1491     270    1913     153                        
CTETRA      2313       1    1491     216     270     109                        
CTETRA      2314       1    1491     153     154    1904                        
CTETRA      2315       1    1492     107    1493     104                        
CTETRA      2316       1    1492     163    1493     158                        
CTETRA      2317       1    1491    1908     158    1904                        
CTETRA      2318       1    1492    1493     387     389                        
CTETRA      2319       1    1493     264     111     112                        
CTETRA      2320       1     314     113     114     377                        
CTETRA      2321       1     119     314     113     114                        
CTETRA      2322       1    1491     105     109     106                        
CTETRA      2323       1     266    2003     219    1911                        
CTETRA      2324       1     266     168     214    3916                        
CTETRA      2325       1      24    1904     106     107                        
CTETRA      2326       1     580     380     446     204                        
CTETRA      2327       1     580     380     204     378                        
CTETRA      2328       1     439     270     243     109                        
$ ... 19868 like lines cut
ENDDATA
