ID C:\Users\Dima\Lame3d2\Mpl,FEMAP
SOL SESTATICS
TIME 10000
CEND
  ECHO = NONE
  DISPLACEMENT(PLOT) = ALL
  SPCFORCE(PLOT) = ALL
  OLOAD(PLOT) = ALL
  FORCE(PLOT,CORNER) = ALL
  STRESS(PLOT,CORNER) = ALL
BEGIN BULK
$ ***************************************************************************
$   Written by : FEMAP
$   Version    : 7.00
$   Translator : MSC/NASTRAN
$   From Model : C:\Users\Dima\Lame3d2\Mpls_all\Exe\Box3d_homog\Solid\model2.MOD
$   Date       : Sun Nov 11 12:27:21 2007
$ ***************************************************************************
$
PARAM,POST,-1
PARAM,OGEOM,NO
PARAM,AUTOSPC,YES
PARAM,GRDPNT,0
CORD2C         1       0      0.      0.      0.      0.      0.      1.+FEMAPC1
+FEMAPC1      1.      0.      1.
CORD2S         2       0      0.      0.      0.      0.      0.      1.+FEMAPC2
+FEMAPC2      1.      0.      1.
$ FEMAP Property 1 : Matrix
PSOLID         1       1       0        
$ FEMAP Property 2 : Fulleren
PSOLID         2       1       0        
$ FEMAP Property 3 : Untitled
PSOLID         3       1       0        
$ FEMAP Material 1 : mat
MAT1           1                              0.      0.      0.        
GRID           2       0 0.33333      0.      1.       0        
GRID           5       0     0.1      0.     0.9       0        
GRID           7       0     0.3      0.     0.7       0        
GRID          20       0 0.24598      0. 0.88035       0        
GRID          21       0 0.37596      0. 0.88283       0        
GRID          32       0     0.5      0. 0.66667       0        
GRID          34       0     0.5   0.125     0.5       0        
GRID          45       0     0.4      0.     0.6       0        
GRID          54       0 0.26675 0.26675 0.73325       0        
GRID          55       0 0.17783 0.17783 0.82217       0        
GRID          70       0 0.38541 0.21328 0.61459       0        
GRID          71       0 0.373670.092678 0.62633       0        
GRID          72       0 0.28381 0.12509 0.71619       0        
GRID          76       0     0.5 0.10774 0.89226       0        
GRID          84       0 0.264950.091923 0.90808       0        
GRID          96       0      0.      0.      1.       0        
GRID         103       0 0.40756 0.24098 0.75902       0        
GRID         104       0 0.32343 0.17701 0.82299       0        
GRID         105       0     0.5      0.     0.5       0        
GRID         107       0 0.16667      0.     0.5       0        
$ ... 697 like lines cut
CTETRA       451       1      70     648     156     103                        
CTETRA       452       1     445      70     648     156                        
CTETRA       453       1     104      21      72     557                        
CTETRA       454       1     103      70     648     556                        
CTETRA       455       1     104      84      72      21                        
CTETRA       456       1     103      72      54      70                        
CTETRA       457       1      54      55      72     104                        
CTETRA       458       1      72      20     119       7                        
CTETRA       459       1     103      71     557      72                        
CTETRA       460       1      76     104     103     557                        
CTETRA       461       1      72      21      20       7                        
CTETRA       462       1      72      54     104     103                        
CTETRA       463       1     557      76     336     103                        
CTETRA       464       1      71      32     557       7                        
CTETRA       465       1     103     557     556     336                        
CTETRA       466       1     103     556     648     336                        
CTETRA       467       1      71      45      34      32                        
CTETRA       468       1      70     556     883     445                        
CTETRA       469       1     883     556     648     445                        
CTETRA       470       1     104      84      21      76                        
$ ... 3132 like lines cut
ENDDATA
