ID C:\Users\Dima\Lame3d2\Mpl,FEMAP
SOL SESTATICS
TIME 10000
CEND
  ECHO = NONE
  DISPLACEMENT(PLOT) = ALL
  SPCFORCE(PLOT) = ALL
  OLOAD(PLOT) = ALL
  FORCE(PLOT,CORNER) = ALL
  STRESS(PLOT,CORNER) = ALL
BEGIN BULK
$ ***************************************************************************
$   Written by : FEMAP
$   Version    : 7.00
$   Translator : MSC/NASTRAN
$   From Model : C:\Users\Dima\Lame3d2\Mpls_all\Exe\Box3d_homog\Solid\model2.MOD
$   Date       : Sun Nov 11 12:15:03 2007
$ ***************************************************************************
$
PARAM,POST,-1
PARAM,OGEOM,NO
PARAM,AUTOSPC,YES
PARAM,GRDPNT,0
CORD2C         1       0      0.      0.      0.      0.      0.      1.+FEMAPC1
+FEMAPC1      1.      0.      1.
CORD2S         2       0      0.      0.      0.      0.      0.      1.+FEMAPC2
+FEMAPC2      1.      0.      1.
$ FEMAP Property 1 : Matrix
PSOLID         1       1       0        
$ FEMAP Property 2 : Fulleren
PSOLID         2       1       0        
$ FEMAP Property 3 : Untitled
PSOLID         3       1       0        
$ FEMAP Material 1 : mat
MAT1           1                              0.      0.      0.        
GRID          17       0 0.38362      0. 0.74861       0        
GRID          18       0  0.2931      0. 0.86783       0        
GRID          22       0 0.41882 0.27792 0.58118       0        
GRID          28       0     0.5      0. 0.66667       0        
GRID          41       0 0.40619   0.153 0.59381       0        
GRID          47       0   0.125      0.   0.875       0        
GRID          61       0 0.33333      0.      1.       0        
GRID          80       0 0.27113 0.10345 0.89655       0        
GRID          90       0   0.375      0.   0.625       0        
GRID          91       0    0.25      0.    0.75       0        
GRID          99       0 0.25139      0. 0.61638       0        
GRID         100       0 0.13217      0.  0.7069       0        
GRID         116       0      0.      0. 0.83333       0        
GRID         119       0      0.      0.     0.5       0        
GRID         122       0 0.32322 0.32322     0.5       0        
GRID         128       0 0.10345 0.10345 0.72887       0        
GRID         143       0 0.11855 0.11855 0.88145       0        
GRID         145       0 0.40616 0.40616 0.84698       0        
GRID         148       0      0. 0.16667      1.       0        
GRID         151       0    0.25    0.25      1.       0        
$ ... 461 like lines cut
CTETRA       265       1      22     321     267     302                        
CTETRA       266       1     267     486      17      90                        
CTETRA       267       1     302      22      41     267                        
CTETRA       268       1     267     486      41     302                        
CTETRA       269       1      28      17     486      90                        
CTETRA       270       1      90     267      91      17                        
CTETRA       271       1      41     486      90     487                        
CTETRA       272       1     486     302     267     526                        
CTETRA       273       1     855     486      41     487                        
CTETRA       274       1      80     143      47     235                        
CTETRA       275       1      17     267      91      80                        
CTETRA       276       1      80      18     484      61                        
CTETRA       277       1      90     267     486      41                        
CTETRA       278       1     855      22      41     302                        
CTETRA       279       1      17     526     267      80                        
CTETRA       280       1     302     486      41     855                        
CTETRA       281       1      80     484      17     526                        
CTETRA       282       1      18      80     484      17                        
CTETRA       283       1      80      18     235      47                        
CTETRA       284       1     143      47     235     265                        
$ ... 1732 like lines cut
ENDDATA
