ID FEMAP,FEMAP
SOL SESTATICS
TIME 10000
CEND
  ECHO = NONE
  DISPLACEMENT(PLOT) = ALL
  SPCFORCE(PLOT) = ALL
  OLOAD(PLOT) = ALL
  FORCE(PLOT,CORNER) = ALL
  STRESS(PLOT,CORNER) = ALL
BEGIN BULK
$ ***************************************************************************
$   Written by : FEMAP
$   Version    : 7.00
$   Translator : MSC/NASTRAN
$   From Model : 
$   Date       : Tue Nov 22 17:55:45 2005
$ ***************************************************************************
$
PARAM,POST,-1
PARAM,OGEOM,NO
PARAM,AUTOSPC,YES
PARAM,GRDPNT,0
CORD2C         1       0      0.      0.      0.      0.      0.      1.+FEMAPC1
+FEMAPC1      1.      0.      1.
CORD2S         2       0      0.      0.      0.      0.      0.      1.+FEMAPC2
+FEMAPC2      1.      0.      1.
$ FEMAP Property 1 : Untitled
PSHELL         1       1      0.       1      1.       1 0.83333      0.
$ FEMAP Material 1 : Untitled
MAT1           1                              0.      0.      0.        
GRID           1       0     -1.      0.      0.       0        
GRID           2       0      0.      1. 2.59809       0        
GRID           3       0      0. 1.73206     1.5       0        
GRID           4       0      0.      2.      0.       0        
GRID           5       0    -0.5 1.73206      0.       0        
GRID           6       0-0.86603      1.      0.       0        
GRID           7       0    -0.5 1.22474 1.83711       0        
GRID           8       0      0.      0.     -3.       0        
GRID           9       0      0.     -1.-2.59809       0        
GRID          10       0      0.-1.73206    -1.5       0        
GRID          11       0      0.     -2.      0.       0        
GRID          12       0-0.86603     -1.      0.       0        
GRID          13       0    -0.5-1.22474-1.83711       0        
GRID          14       0    -0.5-1.73206      0.       0        
GRID          15       0      0.-1.73206     1.5       0        
GRID          16       0      0.     -1. 2.59809       0        
GRID          17       0      0.      0.      3.       0        
GRID          18       0    -0.5      0. 2.59809       0        
GRID          19       0-0.86603      0.     1.5       0        
GRID          20       0    -0.5-1.22474 1.83711       0        
$ ... 18 like lines cut
CTRIA3         1       1       3       4       5                        
CTRIA3         2       1       3       5       7                        
CTRIA3         3       1      18      17       2                        
CTRIA3         4       1       2       3       7                        
CTRIA3         5       1      18       2       7                        
CTRIA3         6       1      19      18       7                        
CTRIA3         7       1       7       5       6                        
CTRIA3         8       1      19       7       6                        
CTRIA3         9       1       1      19       6                        
CTRIA3        10       1      10      11      14                        
CTRIA3        11       1      10      14      13                        
CTRIA3        12       1       9      10      13                        
CTRIA3        13       1      23       8       9                        
CTRIA3        14       1      23       9      13                        
CTRIA3        15       1      13      14      12                        
CTRIA3        16       1      24      23      13                        
CTRIA3        17       1      24      13      12                        
CTRIA3        18       1       1      24      12                        
CTRIA3        19       1      16      17      18                        
CTRIA3        20       1      16      18      20                        
$ ... 52 like lines cut
ENDDATA
