ID C:\Users\Dima\Lame3d2\Mpl,FEMAP
SOL SESTATICS
TIME 10000
CEND
  ECHO = NONE
  DISPLACEMENT(PLOT) = ALL
  SPCFORCE(PLOT) = ALL
  OLOAD(PLOT) = ALL
  FORCE(PLOT,CORNER) = ALL
  STRESS(PLOT,CORNER) = ALL
BEGIN BULK
$ ***************************************************************************
$   Written by : FEMAP
$   Version    : 7.00
$   Translator : MSC/NASTRAN
$   From Model : C:\Users\Dima\Lame3d2\Mpls_all\Exe\Parametric\Solid\sphere1.MOD
$   Date       : Sat Nov 19 20:18:54 2005
$ ***************************************************************************
$
PARAM,POST,-1
PARAM,OGEOM,NO
PARAM,AUTOSPC,YES
PARAM,GRDPNT,0
CORD2C         1       0      0.      0.      0.      0.      0.      1.+FEMAPC1
+FEMAPC1      1.      0.      1.
CORD2S         2       0      0.      0.      0.      0.      0.      1.+FEMAPC2
+FEMAPC2      1.      0.      1.
$ FEMAP Property 1 : Sphere surface
PSHELL         1       1      0.       1               1              0.
$ FEMAP Material 1 : Mat1
MAT1           1                              0.      0.      0.        
GRID          57       0     -1.      0.      0.       0        
GRID          58       0-0.92388      0. 0.38268       0        
GRID          59       0-0.70711      0. 0.70711       0        
GRID          60       0-0.38268      0. 0.92388       0        
GRID          62       0      0. 0.38268 0.92388       0        
GRID          63       0      0. 0.70711 0.70711       0        
GRID          64       0      0. 0.92388 0.38268       0        
GRID          65       0      0.      1.      0.       0        
GRID          69       0-0.30234 0.88064 0.36477       0        
GRID          70       0-0.28543 0.67769 0.67769       0        
GRID          71       0-0.30234 0.36477 0.88064       0        
GRID          72       0-0.71094 0.49728 0.49728       0        
GRID          73       0 -0.5169 0.60532 0.60532       0        
GRID          74       0 -0.5187 0.78987 0.32718       0        
GRID          75       0 -0.5187 0.32718 0.78987       0        
GRID          76       0-0.86698 0.35238 0.35238       0        
GRID          79       0-0.70711      0.-0.70711       0        
GRID          80       0-0.38268      0.-0.92388       0        
GRID          82       0      0.-0.38268-0.92388       0        
GRID          83       0      0.-0.70711-0.70711       0        
$ ... 86 like lines cut
CQUAD4        25       1      64      65     120      69                
CQUAD4        26       1      63      64      69      70                
CQUAD4        27       1      62      63      70      71                
CQUAD4        28       1      60     105      62      71                
CQUAD4        29       1      69     120     119      74                
CQUAD4        30       1      74     119      72      73                
CQUAD4        31       1      70      69      74      73                
CQUAD4        32       1      59      60      71      75                
CQUAD4        33       1      75      71      70      73                
CQUAD4        34       1      59      75      73      72                
CQUAD4        35       1      72     119     118      76                
CQUAD4        36       1      58      59      72      76                
CQUAD4        37       1      57      58      76     118                
CQUAD4        38       1      84     101      86      89                
CQUAD4        39       1      83      84      89      90                
CQUAD4        40       1      82      83      90      91                
CQUAD4        41       1      80     125      82      91                
CQUAD4        42       1      89      86      99      94                
CQUAD4        43       1      94      99      92      93                
CQUAD4        44       1      90      89      94      93                
$ ... 84 like lines cut
ENDDATA
