ID C:\Users\Dima\Lame3d2\Mpl,FEMAP
SOL SESTATICS
TIME 10000
CEND
  ECHO = NONE
  DISPLACEMENT(PLOT) = ALL
  SPCFORCE(PLOT) = ALL
  OLOAD(PLOT) = ALL
  FORCE(PLOT,CORNER) = ALL
  STRESS(PLOT,CORNER) = ALL
BEGIN BULK
$ ***************************************************************************
$   Written by : FEMAP
$   Version    : 7.00
$   Translator : MSC/NASTRAN
$   From Model : C:\Users\Dima\Lame3d2\Mpls_all\Exe\Parametric\Solid\sphere1.MOD
$   Date       : Sat Nov 19 16:48:13 2005
$ ***************************************************************************
$
PARAM,POST,-1
PARAM,OGEOM,NO
PARAM,AUTOSPC,YES
PARAM,GRDPNT,0
CORD2C         1       0      0.      0.      0.      0.      0.      1.+FEMAPC1
+FEMAPC1      1.      0.      1.
CORD2S         2       0      0.      0.      0.      0.      0.      1.+FEMAPC2
+FEMAPC2      1.      0.      1.
$ FEMAP Property 1 : Sphere surface
PSHELL         1       1      0.       1               1              0.
$ FEMAP Material 1 : Mat1
MAT1           1                              0.      0.      0.        
GRID          57       0     -1.      0.      0.       0        
GRID          58       0-0.96593      0. 0.25882       0        
GRID          60       0-0.70711      0. 0.70711       0        
GRID          61       0    -0.5      0. 0.86603       0        
GRID          62       0-0.25882      0. 0.96593       0        
GRID          64       0      0. 0.25882 0.96593       0        
GRID          65       0      0.     0.5 0.86603       0        
GRID          66       0      0. 0.70711 0.70711       0        
GRID          67       0      0. 0.86603     0.5       0        
GRID          68       0      0. 0.96593 0.25882       0        
GRID          70       0-0.25882 0.96593      0.       0        
GRID          74       0-0.96593 0.25882      0.       0        
GRID          75       0-0.51617 0.78226 0.34877       0        
GRID          76       0-0.51705 0.60525 0.60525       0        
GRID          77       0-0.51617 0.34877 0.78226       0        
GRID          78       0-0.35688 0.66054 0.66054       0        
GRID          79       0-0.18394 0.69504 0.69504       0        
GRID          80       0-0.35631 0.82346 0.44155       0        
GRID          81       0 -0.1874 0.85516 0.48331       0        
GRID          82       0-0.20195 0.94737 0.24842       0        
$ ... 210 like lines cut
CQUAD4        25       1      80      81      82      83                
CQUAD4        26       1     174      75      80      83                
CQUAD4        27       1      70     174      83      82                
CQUAD4        28       1      68     176      70      82                
CQUAD4        29       1      67      68      82      81                
CQUAD4        30       1      80      75      76      78                
CQUAD4        31       1      81      80      78      79                
CQUAD4        32       1      66      67      81      79                
CQUAD4        33       1      78      76      77      84                
CQUAD4        34       1      79      78      84      85                
CQUAD4        35       1      65      66      79      85                
CQUAD4        36       1      64      65      85      86                
CQUAD4        37       1      62     145      64      86                
CQUAD4        38       1      86      85      84      87                
CQUAD4        39       1      61      62      86      87                
CQUAD4        40       1      61      87      84      77                
CQUAD4        41       1      75     174     173      88                
CQUAD4        42       1      76      75      88      89                
CQUAD4        43       1      77      76      89      90                
CQUAD4        44       1      60      61      77      90                
$ ... 208 like lines cut
ENDDATA
