ID C:\Users\Dima\Lame3d2\Mpl,FEMAP
SOL SESTATICS
TIME 10000
CEND
  ECHO = NONE
  DISPLACEMENT(PLOT) = ALL
  SPCFORCE(PLOT) = ALL
  OLOAD(PLOT) = ALL
  FORCE(PLOT,CORNER) = ALL
  STRESS(PLOT,CORNER) = ALL
BEGIN BULK
$ ***************************************************************************
$   Written by : FEMAP
$   Version    : 7.00
$   Translator : MSC/NASTRAN
$   From Model : C:\Users\Dima\Lame3d2\Mpls_all\Exe\Parametric\Solid\sphere1.MOD
$   Date       : Sat Nov 19 19:09:37 2005
$ ***************************************************************************
$
PARAM,POST,-1
PARAM,OGEOM,NO
PARAM,AUTOSPC,YES
PARAM,GRDPNT,0
CORD2C         1       0      0.      0.      0.      0.      0.      1.+FEMAPC1
+FEMAPC1      1.      0.      1.
CORD2S         2       0      0.      0.      0.      0.      0.      1.+FEMAPC2
+FEMAPC2      1.      0.      1.
$ FEMAP Property 1 : Sphere surface
PSHELL         1       1      0.       1               1              0.
$ FEMAP Material 1 : Mat1
MAT1           1                              0.      0.      0.        
GRID          57       0     -1.      0.      0.       0        
GRID          58       0-0.97493      0. 0.22252       0        
GRID          59       0-0.90097      0. 0.43388       0        
GRID          60       0-0.78183      0. 0.62349       0        
GRID          62       0-0.43388      0. 0.90097       0        
GRID          63       0-0.22252      0. 0.97493       0        
GRID          65       0      0. 0.22252 0.97493       0        
GRID          66       0      0. 0.43388 0.90097       0        
GRID          67       0      0. 0.62349 0.78183       0        
GRID          68       0      0. 0.78183 0.62349       0        
GRID          69       0      0. 0.90097 0.43388       0        
GRID          70       0      0. 0.97493 0.22252       0        
GRID          72       0-0.22252 0.97493      0.       0        
GRID          73       0-0.43388 0.90097      0.       0        
GRID          74       0-0.62349 0.78183      0.       0        
GRID          75       0-0.78183 0.62349      0.       0        
GRID         114       0-0.43393 0.85148 0.29443       0        
GRID         115       0-0.43471 0.63644 0.63716       0        
GRID         116       0-0.43392 0.29381  0.8517       0        
GRID         117       0-0.21433 0.83376 0.50883       0        
$ ... 170 like lines cut
CTRIA3       123       1     114     117     118                        
CTRIA3       124       1      73     114     118                        
CTRIA3       125       1      72      73     118                        
CTRIA3       126       1      70     277      72                        
CTRIA3       127       1      70      72     118                        
CTRIA3       128       1      69      70     118                        
CTRIA3       129       1      69     118     117                        
CTRIA3       130       1      68      69     117                        
CTRIA3       131       1     116     119     120                        
CTRIA3       132       1     115     116     120                        
CTRIA3       133       1     115     120     121                        
CTRIA3       134       1     117     114     115                        
CTRIA3       135       1     117     115     121                        
CTRIA3       136       1      68     117     121                        
CTRIA3       137       1      67      68     121                        
CTRIA3       138       1      67     121     120                        
CTRIA3       139       1      66      67     120                        
CTRIA3       140       1      66     120     119                        
CTRIA3       141       1      65      66     119                        
CTRIA3       142       1      63     213      65                        
$ ... 356 like lines cut
ENDDATA
