ID C:\Users\Dima\Lame3d2\Mpl,FEMAP
SOL SESTATICS
TIME 10000
CEND
  ECHO = NONE
  DISPLACEMENT(PLOT) = ALL
  SPCFORCE(PLOT) = ALL
  OLOAD(PLOT) = ALL
  FORCE(PLOT,CORNER) = ALL
  STRESS(PLOT,CORNER) = ALL
BEGIN BULK
$ ***************************************************************************
$   Written by : FEMAP
$   Version    : 7.00
$   Translator : MSC/NASTRAN
$   From Model : C:\Users\Dima\Lame3d2\Mpls_all\Exe\Parametric\Solid\sphere1.MOD
$   Date       : Sat Nov 19 16:50:27 2005
$ ***************************************************************************
$
PARAM,POST,-1
PARAM,OGEOM,NO
PARAM,AUTOSPC,YES
PARAM,GRDPNT,0
CORD2C         1       0      0.      0.      0.      0.      0.      1.+FEMAPC1
+FEMAPC1      1.      0.      1.
CORD2S         2       0      0.      0.      0.      0.      0.      1.+FEMAPC2
+FEMAPC2      1.      0.      1.
$ FEMAP Property 1 : Sphere surface
PSHELL         1       1      0.       1               1              0.
$ FEMAP Material 1 : Mat1
MAT1           1                              0.      0.      0.        
GRID          57       0     -1.      0.      0.       0        
GRID          58       0-0.96593      0. 0.25882       0        
GRID          60       0-0.70711      0. 0.70711       0        
GRID          61       0    -0.5      0. 0.86603       0        
GRID          62       0-0.25882      0. 0.96593       0        
GRID          64       0      0. 0.25882 0.96593       0        
GRID          65       0      0.     0.5 0.86603       0        
GRID          66       0      0. 0.70711 0.70711       0        
GRID          67       0      0. 0.86603     0.5       0        
GRID          68       0      0. 0.96593 0.25882       0        
GRID          70       0-0.25882 0.96593      0.       0        
GRID          74       0-0.96593 0.25882      0.       0        
GRID         100       0-0.26375 0.91293 0.31144       0        
GRID         101       0-0.27233 0.68021 0.68055       0        
GRID         102       0-0.26375 0.31118 0.91302       0        
GRID         103       0 -0.7198 0.60707 0.33669       0        
GRID         104       0 -0.7198 0.33632 0.60728       0        
GRID         105       0-0.51501 0.78911 0.33475       0        
GRID         106       0-0.55848 0.58629 0.58682       0        
GRID         107       0-0.51501 0.33429 0.78931       0        
$ ... 123 like lines cut
CTRIA3        97       1      68     221      70                        
CTRIA3        98       1      68      70     100                        
CTRIA3        99       1      67      68     100                        
CTRIA3       100       1      67     100     101                        
CTRIA3       101       1      66      67     101                        
CTRIA3       102       1      65      66     101                        
CTRIA3       103       1      65     101     102                        
CTRIA3       104       1      64      65     102                        
CTRIA3       105       1      62     174      64                        
CTRIA3       106       1      62      64     102                        
CTRIA3       107       1     218     103     105                        
CTRIA3       108       1     219     218     105                        
CTRIA3       109       1     100      70     219                        
CTRIA3       110       1     100     219     105                        
CTRIA3       111       1     101     100     105                        
CTRIA3       112       1     101     105     106                        
CTRIA3       113       1     101     106     107                        
CTRIA3       114       1     102     101     107                        
CTRIA3       115       1      61      62     102                        
CTRIA3       116       1      61     102     107                        
$ ... 262 like lines cut
ENDDATA
