ID C:\Users\Dima\Lame3d2\Mpl,FEMAP
SOL SESTATICS
TIME 10000
CEND
  ECHO = NONE
  DISPLACEMENT(PLOT) = ALL
  SPCFORCE(PLOT) = ALL
  OLOAD(PLOT) = ALL
  FORCE(PLOT,CORNER) = ALL
  STRESS(PLOT,CORNER) = ALL
BEGIN BULK
$ ***************************************************************************
$   Written by : FEMAP
$   Version    : 7.00
$   Translator : MSC/NASTRAN
$   From Model : C:\Users\Dima\Lame3d2\Mpls_all\Exe\Box3d_fulleren\Solid_sph\sphere1.MOD
$   Date       : Sat Nov 19 14:30:44 2005
$ ***************************************************************************
$
PARAM,POST,-1
PARAM,OGEOM,NO
PARAM,AUTOSPC,YES
PARAM,GRDPNT,0
CORD2C         1       0      0.      0.      0.      0.      0.      1.+FEMAPC1
+FEMAPC1      1.      0.      1.
CORD2S         2       0      0.      0.      0.      0.      0.      1.+FEMAPC2
+FEMAPC2      1.      0.      1.
$ FEMAP Property 1 : Sphere surface
PSHELL         1       1      0.       1               1              0.
$ FEMAP Material 1 : Mat1
MAT1           1                              0.      0.      0.        
GRID         145       0     -1.      0.      0.       0        
GRID         149       0      0.     0.5 0.86603       0        
GRID         150       0      0. 0.86603     0.5       0        
GRID         151       0      0.      1.      0.       0        
GRID         152       0    -0.5 0.86603      0.       0        
GRID         153       0-0.86603     0.5      0.       0        
GRID         158       0    -0.5 0.61237 0.61237       0        
GRID         162       0      0.      0.     -1.       0        
GRID         163       0      0.    -0.5-0.86603       0        
GRID         164       0      0.-0.86603    -0.5       0        
GRID         165       0      0.     -1.      0.       0        
GRID         167       0-0.86603    -0.5      0.       0        
GRID         172       0    -0.5-0.61237-0.61237       0        
GRID         175       0    -0.5-0.86603      0.       0        
GRID         177       0      0.-0.86603     0.5       0        
GRID         178       0      0.    -0.5 0.86603       0        
GRID         179       0      0.      0.      1.       0        
GRID         180       0    -0.5      0. 0.86603       0        
GRID         181       0-0.86603      0.     0.5       0        
GRID         186       0    -0.5-0.61237 0.61237       0        
$ ... 18 like lines cut
CTRIA3        91       1     150     151     152                        
CTRIA3        92       1     150     152     158                        
CTRIA3        93       1     180     179     149                        
CTRIA3        94       1     149     150     158                        
CTRIA3        95       1     180     149     158                        
CTRIA3        96       1     181     180     158                        
CTRIA3        97       1     158     152     153                        
CTRIA3        98       1     181     158     153                        
CTRIA3        99       1     145     181     153                        
CTRIA3       118       1     164     165     175                        
CTRIA3       119       1     164     175     172                        
CTRIA3       120       1     163     164     172                        
CTRIA3       121       1     194     162     163                        
CTRIA3       122       1     194     163     172                        
CTRIA3       123       1     172     175     167                        
CTRIA3       124       1     195     194     172                        
CTRIA3       125       1     195     172     167                        
CTRIA3       126       1     145     195     167                        
CTRIA3       145       1     178     179     180                        
CTRIA3       146       1     178     180     186                        
$ ... 52 like lines cut
ENDDATA
