ID C:\Users\Dima\Lame3d2\Mpl,FEMAP
SOL SESTATICS
TIME 10000
CEND
  ECHO = NONE
  DISPLACEMENT(PLOT) = ALL
  SPCFORCE(PLOT) = ALL
  OLOAD(PLOT) = ALL
  FORCE(PLOT,CORNER) = ALL
  STRESS(PLOT,CORNER) = ALL
BEGIN BULK
$ ***************************************************************************
$   Written by : FEMAP
$   Version    : 7.00
$   Translator : MSC/NASTRAN
$   From Model : C:\Users\Dima\Lame3d2\Mpls_all\Exe\Parametric\Solid\UnitBox.MOD
$   Date       : Mon Oct 10 15:30:01 2005
$ ***************************************************************************
$
PARAM,POST,-1
PARAM,OGEOM,NO
PARAM,AUTOSPC,YES
PARAM,GRDPNT,0
CORD2C         1       0      0.      0.      0.      0.      0.      1.+FEMAPC1
+FEMAPC1      1.      0.      1.
CORD2S         2       0      0.      0.      0.      0.      0.      1.+FEMAPC2
+FEMAPC2      1.      0.      1.
$ FEMAP Property 1 : UnitPlane
PSHELL         1       1      0.       1               1              0.
$ FEMAP Material 1 : MaterialNull
MAT1           1                              0.      0.      0.        
GRID           5       0      0.      1.      0.       0        
GRID           6       0      0.     0.9      0.       0        
GRID           7       0      0.     0.8      0.       0        
GRID           8       0      0.     0.7      0.       0        
GRID           9       0      0.     0.6      0.       0        
GRID          10       0      0.     0.5      0.       0        
GRID          11       0      0.     0.4      0.       0        
GRID          12       0      0.     0.3      0.       0        
GRID          13       0      0.     0.2      0.       0        
GRID          14       0      0.     0.1      0.       0        
GRID          15       0      0.      0.      0.       0        
GRID          16       0     0.1      0.      0.       0        
GRID          17       0     0.2      0.      0.       0        
GRID          18       0     0.3      0.      0.       0        
GRID          19       0     0.4      0.      0.       0        
GRID          20       0     0.5      0.      0.       0        
GRID          21       0     0.6      0.      0.       0        
GRID          22       0     0.7      0.      0.       0        
GRID          23       0     0.8      0.      0.       0        
GRID          24       0     0.9      0.      0.       0        
$ ... 101 like lines cut
CQUAD4         2       1       5       6      45      44                
CQUAD4         3       1       6       7      46      45                
CQUAD4         4       1       7       8      47      46                
CQUAD4         5       1       8       9      48      47                
CQUAD4         6       1       9      10      49      48                
CQUAD4         7       1      10      11      50      49                
CQUAD4         8       1      11      12      51      50                
CQUAD4         9       1      12      13      52      51                
CQUAD4        10       1      13      14      53      52                
CQUAD4        11       1      14      15      16      53                
CQUAD4        12       1      44      45      54      43                
CQUAD4        13       1      45      46      55      54                
CQUAD4        14       1      46      47      56      55                
CQUAD4        15       1      47      48      57      56                
CQUAD4        16       1      48      49      58      57                
CQUAD4        17       1      49      50      59      58                
CQUAD4        18       1      50      51      60      59                
CQUAD4        19       1      51      52      61      60                
CQUAD4        20       1      52      53      62      61                
CQUAD4        21       1      53      16      17      62                
$ ... 80 like lines cut
ENDDATA
