ID FEMAP,FEMAP
SOL SESTATICS
TIME 10000
CEND
  ECHO = NONE
  DISPLACEMENT(PLOT) = ALL
  SPCFORCE(PLOT) = ALL
  OLOAD(PLOT) = ALL
  FORCE(PLOT,CORNER) = ALL
  STRESS(PLOT,CORNER) = ALL
BEGIN BULK
$ ***************************************************************************
$   Written by : FEMAP
$   Version    : 7.00
$   Translator : MSC/NASTRAN
$   From Model : 
$   Date       : Fri Apr 09 10:42:25 2010
$ ***************************************************************************
$
PARAM,POST,-1
PARAM,OGEOM,NO
PARAM,AUTOSPC,YES
PARAM,GRDPNT,0
CORD2C         1       0      0.      0.      0.      0.      0.      1.+FEMAPC1
+FEMAPC1      1.      0.      1.
CORD2S         2       0      0.      0.      0.      0.      0.      1.+FEMAPC2
+FEMAPC2      1.      0.      1.
$ FEMAP Property 1 : Untitled
PSOLID         1       1       0        
$ FEMAP Material 1 : Untitled
MAT1           1                              0.      0.      0.        
GRID           1       0    0.25      0.      1.       0        
GRID           2       0   0.375      0.      1.       0        
GRID           3       0   0.625      0.      1.       0        
GRID           4       0    0.75      0.      1.       0        
GRID           5       0      1.   0.125      1.       0        
GRID           6       0      1.    0.25      1.       0        
GRID           7       0      1.   0.375      1.       0        
GRID           8       0      1.     0.5      1.       0        
GRID           9       0      1.    0.75      1.       0        
GRID          10       0      1.      1.      1.       0        
GRID          11       0   0.375      1.      1.       0        
GRID          12       0      0.   0.875      1.       0        
GRID          13       0      0.   0.625      1.       0        
GRID          14       0      0.   0.375      1.       0        
GRID          15       0      0.   0.125      1.       0        
GRID          16       0   0.125   0.125      1.       0        
GRID          17       0    0.25   0.125      1.       0        
GRID          18       0   0.375   0.125      1.       0        
GRID          19       0     0.5   0.125      1.       0        
GRID          20       0   0.625   0.125      1.       0        
$ ... 709 like lines cut
CHEXA          1       1     132      15      16      69      70     154+EL    1
+EL    1     387     125                                                        
CHEXA          2       1      69      16      17       1     125     387+EL    2
+EL    2     388     118                                                        
CHEXA          3       1       1      17      18       2     118     388+EL    3
+EL    3     389     111                                                        
CHEXA          4       1       2      18      19      68     111     389+EL    4
+EL    4     390     104                                                        
CHEXA          5       1      68      19      20       3     104     390+EL    5
+EL    5     391      97                                                        
CHEXA          6       1       3      20      21       4      97     391+EL    6
+EL    6     392      90                                                        
CHEXA          7       1       4      21      22      67      90     392+EL    7
+EL    7     393      83                                                        
CHEXA          8       1      67      22       5     332      83     393+EL    8
+EL    8     380     333                                                        
CHEXA          9       1      15     133      23      16     154     161+EL    9
+EL    9     394     387                                                        
CHEXA         10       1      16      23      24      17     387     394+EL    A
+EL    A     395     388                                                        
CHEXA         11       1      17      24      25      18     388     395+EL    B
+EL    B     396     389                                                        
CHEXA         12       1      18      25      26      19     389     396+EL    C
+EL    C     397     390                                                        
CHEXA         13       1      19      26      27      20     390     397+EL    D
+EL    D     398     391                                                        
CHEXA         14       1      20      27      28      21     391     398+EL    E
+EL    E     399     392                                                        
CHEXA         15       1      21      28      29      22     392     399+EL    F
+EL    F     400     393                                                        
CHEXA         16       1      22      29       6       5     393     400+EL    G
+EL    G     381     380                                                        
CHEXA         17       1     133      14      30      23     161     168+EL    H
+EL    H     401     394                                                        
CHEXA         18       1      23      30      31      24     394     401+EL    I
+EL    I     402     395                                                        
CHEXA         19       1      24      31      32      25     395     402+EL    J
+EL    J     403     396                                                        
CHEXA         20       1      25      32      33      26     396     403+EL    K
+EL    K     404     397                                                        
CHEXA         21       1      26      33      34      27     397     404+EL    L
+EL    L     405     398                                                        
CHEXA         22       1      27      34      35      28     398     405+EL    M
+EL    M     406     399                                                        
CHEXA         23       1      28      35      36      29     399     406+EL    N
+EL    N     407     400                                                        
CHEXA         24       1      29      36       7       6     400     407+EL    O
+EL    O     382     381                                                        
CHEXA         25       1      14     134      37      30     168     175+EL    P
+EL    P     408     401                                                        
CHEXA         26       1      30      37      38      31     401     408+EL    Q
+EL    Q     409     402                                                        
CHEXA         27       1      31      38      39      32     402     409+EL    R
+EL    R     410     403                                                        
CHEXA         28       1      32      39      40      33     403     410+EL    S
+EL    S     411     404                                                        
CHEXA         29       1      33      40      41      34     404     411+EL    T
+EL    T     412     405                                                        
CHEXA         30       1      34      41      42      35     405     412+EL    U
+EL    U     413     406                                                        
CHEXA         31       1      35      42      43      36     406     413+EL    V
+EL    V     414     407                                                        
CHEXA         32       1      36      43       8       7     407     414+EL    W
+EL    W     383     382                                                        
CHEXA         33       1     134      13      44      37     175     182+EL    X
+EL    X     415     408                                                        
CHEXA         34       1      37      44      45      38     408     415+EL    Y
+EL    Y     416     409                                                        
CHEXA         35       1      38      45      46      39     409     416+EL    Z
+EL    Z     417     410                                                        
CHEXA         36       1      39      46      47      40     410     417+EL   10
+EL   10     418     411                                                        
CHEXA         37       1      40      47      48      41     411     418+EL   11
+EL   11     419     412                                                        
CHEXA         38       1      41      48      49      42     412     419+EL   12
+EL   12     420     413                                                        
CHEXA         39       1      42      49      50      43     413     420+EL   13
+EL   13     421     414                                                        
CHEXA         40       1      43      50     331       8     414     421+EL   14
+EL   14     384     383                                                        
CHEXA         41       1      13     135      51      44     182     189+EL   15
+EL   15     422     415                                                        
CHEXA         42       1      44      51      52      45     415     422+EL   16
+EL   16     423     416                                                        
CHEXA         43       1      45      52      53      46     416     423+EL   17
+EL   17     424     417                                                        
CHEXA         44       1      46      53      54      47     417     424+EL   18
+EL   18     425     418                                                        
CHEXA         45       1      47      54      55      48     418     425+EL   19
+EL   19     426     419                                                        
CHEXA         46       1      48      55      56      49     419     426+EL   1A
+EL   1A     427     420                                                        
CHEXA         47       1      49      56      57      50     420     427+EL   1B
+EL   1B     428     421                                                        
CHEXA         48       1      50      57       9     331     421     428+EL   1C
+EL   1C     385     384                                                        
CHEXA         49       1     135      12      58      51     189     196+EL   1D
+EL   1D     429     422                                                        
CHEXA         50       1      51      58      59      52     422     429+EL   1E
+EL   1E     430     423                                                        
CHEXA         51       1      52      59      60      53     423     430+EL   1F
+EL   1F     431     424                                                        
CHEXA         52       1      53      60      61      54     424     431+EL   1G
+EL   1G     432     425                                                        
CHEXA         53       1      54      61      62      55     425     432+EL   1H
+EL   1H     433     426                                                        
CHEXA         54       1      55      62      63      56     426     433+EL   1I
+EL   1I     434     427                                                        
CHEXA         55       1      56      63      64      57     427     434+EL   1J
+EL   1J     435     428                                                        
CHEXA         56       1      57      64     330       9     428     435+EL   1K
+EL   1K     386     385                                                        
CHEXA         57       1      12     136     199      58     196     137+EL   1L
+EL   1L     222     429                                                        
CHEXA         58       1      58     199     200      59     429     222+EL   1M
+EL   1M     229     430                                                        
CHEXA         59       1      59     200      11      60     430     229+EL   1N
+EL   1N     236     431                                                        
CHEXA         60       1      60      11     201      61     431     236+EL   1O
+EL   1O     243     432                                                        
CHEXA         61       1      61     201     202      62     432     243+EL   1P
+EL   1P     250     433                                                        
CHEXA         62       1      62     202     203      63     433     250+EL   1Q
+EL   1Q     257     434                                                        
CHEXA         63       1      63     203     204      64     434     257+EL   1R
+EL   1R     264     435                                                        
CHEXA         64       1      64     204      10     330     435     264+EL   1S
+EL   1S     205     386                                                        
CHEXA         65       1      70     154     387     125     131     153+EL   1T
+EL   1T     436     124                                                        
CHEXA         66       1     125     387     388     118     124     436+EL   1U
+EL   1U     437     117                                                        
CHEXA         67       1     118     388     389     111     117     437+EL   1V
+EL   1V     438     110                                                        
CHEXA         68       1     111     389     390     104     110     438+EL   1W
+EL   1W     439     103                                                        
CHEXA         69       1     104     390     391      97     103     439+EL   1X
+EL   1X     440      96                                                        
CHEXA         70       1      97     391     392      90      96     440+EL   1Y
+EL   1Y     441      89                                                        
CHEXA         71       1      90     392     393      83      89     441+EL   1Z
+EL   1Z     442      82                                                        
CHEXA         72       1      83     393     380     333      82     442+EL   20
+EL   20     373     334                                                        
CHEXA         73       1     154     161     394     387     153     160+EL   21
+EL   21     443     436                                                        
CHEXA         74       1     387     394     395     388     436     443+EL   22
+EL   22     444     437                                                        
CHEXA         75       1     388     395     396     389     437     444+EL   23
+EL   23     445     438                                                        
CHEXA         76       1     389     396     397     390     438     445+EL   24
+EL   24     446     439                                                        
CHEXA         77       1     390     397     398     391     439     446+EL   25
+EL   25     447     440                                                        
CHEXA         78       1     391     398     399     392     440     447+EL   26
+EL   26     448     441                                                        
CHEXA         79       1     392     399     400     393     441     448+EL   27
+EL   27     449     442                                                        
CHEXA         80       1     393     400     381     380     442     449+EL   28
+EL   28     374     373                                                        
CHEXA         81       1     161     168     401     394     160     167+EL   29
+EL   29     450     443                                                        
CHEXA         82       1     394     401     402     395     443     450+EL   2A
+EL   2A     451     444                                                        
CHEXA         83       1     395     402     403     396     444     451+EL   2B
+EL   2B     452     445                                                        
CHEXA         84       1     396     403     404     397     445     452+EL   2C
+EL   2C     453     446                                                        
CHEXA         85       1     397     404     405     398     446     453+EL   2D
+EL   2D     454     447                                                        
CHEXA         86       1     398     405     406     399     447     454+EL   2E
+EL   2E     455     448                                                        
CHEXA         87       1     399     406     407     400     448     455+EL   2F
+EL   2F     456     449                                                        
CHEXA         88       1     400     407     382     381     449     456+EL   2G
+EL   2G     375     374                                                        
CHEXA         89       1     168     175     408     401     167     174+EL   2H
+EL   2H     457     450                                                        
CHEXA         90       1     401     408     409     402     450     457+EL   2I
+EL   2I     458     451                                                        
CHEXA         91       1     402     409     410     403     451     458+EL   2J
+EL   2J     459     452                                                        
CHEXA         92       1     403     410     411     404     452     459+EL   2K
+EL   2K     460     453                                                        
CHEXA         93       1     404     411     412     405     453     460+EL   2L
+EL   2L     461     454                                                        
CHEXA         94       1     405     412     413     406     454     461+EL   2M
+EL   2M     462     455                                                        
CHEXA         95       1     406     413     414     407     455     462+EL   2N
+EL   2N     463     456                                                        
CHEXA         96       1     407     414     383     382     456     463+EL   2O
+EL   2O     376     375                                                        
CHEXA         97       1     175     182     415     408     174     181+EL   2P
+EL   2P     464     457                                                        
CHEXA         98       1     408     415     416     409     457     464+EL   2Q
+EL   2Q     465     458                                                        
CHEXA         99       1     409     416     417     410     458     465+EL   2R
+EL   2R     466     459                                                        
CHEXA        100       1     410     417     418     411     459     466+EL   2S
+EL   2S     467     460                                                        
CHEXA        101       1     411     418     419     412     460     467+EL   2T
+EL   2T     468     461                                                        
CHEXA        102       1     412     419     420     413     461     468+EL   2U
+EL   2U     469     462                                                        
CHEXA        103       1     413     420     421     414     462     469+EL   2V
+EL   2V     470     463                                                        
CHEXA        104       1     414     421     384     383     463     470+EL   2W
+EL   2W     377     376                                                        
CHEXA        105       1     182     189     422     415     181     188+EL   2X
+EL   2X     471     464                                                        
CHEXA        106       1     415     422     423     416     464     471+EL   2Y
+EL   2Y     472     465                                                        
CHEXA        107       1     416     423     424     417     465     472+EL   2Z
+EL   2Z     473     466                                                        
CHEXA        108       1     417     424     425     418     466     473+EL   30
+EL   30     474     467                                                        
CHEXA        109       1     418     425     426     419     467     474+EL   31
+EL   31     475     468                                                        
CHEXA        110       1     419     426     427     420     468     475+EL   32
+EL   32     476     469                                                        
CHEXA        111       1     420     427     428     421     469     476+EL   33
+EL   33     477     470                                                        
CHEXA        112       1     421     428     385     384     470     477+EL   34
+EL   34     378     377                                                        
CHEXA        113       1     189     196     429     422     188     195+EL   35
+EL   35     478     471                                                        
CHEXA        114       1     422     429     430     423     471     478+EL   36
+EL   36     479     472                                                        
CHEXA        115       1     423     430     431     424     472     479+EL   37
+EL   37     480     473                                                        
CHEXA        116       1     424     431     432     425     473     480+EL   38
+EL   38     481     474                                                        
CHEXA        117       1     425     432     433     426     474     481+EL   39
+EL   39     482     475                                                        
CHEXA        118       1     426     433     434     427     475     482+EL   3A
+EL   3A     483     476                                                        
CHEXA        119       1     427     434     435     428     476     483+EL   3B
+EL   3B     484     477                                                        
CHEXA        120       1     428     435     386     385     477     484+EL   3C
+EL   3C     379     378                                                        
CHEXA        121       1     196     137     222     429     195     198+EL   3D
+EL   3D     221     478                                                        
CHEXA        122       1     429     222     229     430     478     221+EL   3E
+EL   3E     228     479                                                        
CHEXA        123       1     430     229     236     431     479     228+EL   3F
+EL   3F     235     480                                                        
CHEXA        124       1     431     236     243     432     480     235+EL   3G
+EL   3G     242     481                                                        
CHEXA        125       1     432     243     250     433     481     242+EL   3H
+EL   3H     249     482                                                        
CHEXA        126       1     433     250     257     434     482     249+EL   3I
+EL   3I     256     483                                                        
CHEXA        127       1     434     257     264     435     483     256+EL   3J
+EL   3J     263     484                                                        
CHEXA        128       1     435     264     205     386     484     263+EL   3K
+EL   3K     206     379                                                        
CHEXA        129       1     131     153     436     124     130     152+EL   3L
+EL   3L     485     123                                                        
CHEXA        130       1     124     436     437     117     123     485+EL   3M
+EL   3M     486     116                                                        
CHEXA        131       1     117     437     438     110     116     486+EL   3N
+EL   3N     487     109                                                        
CHEXA        132       1     110     438     439     103     109     487+EL   3O
+EL   3O     488     102                                                        
CHEXA        133       1     103     439     440      96     102     488+EL   3P
+EL   3P     489      95                                                        
CHEXA        134       1      96     440     441      89      95     489+EL   3Q
+EL   3Q     490      88                                                        
CHEXA        135       1      89     441     442      82      88     490+EL   3R
+EL   3R     491      81                                                        
CHEXA        136       1      82     442     373     334      81     491+EL   3S
+EL   3S     366      66                                                        
CHEXA        137       1     153     160     443     436     152     159+EL   3T
+EL   3T     492     485                                                        
CHEXA        138       1     436     443     444     437     485     492+EL   3U
+EL   3U     493     486                                                        
CHEXA        139       1     437     444     445     438     486     493+EL   3V
+EL   3V     494     487                                                        
CHEXA        140       1     438     445     446     439     487     494+EL   3W
+EL   3W     495     488                                                        
CHEXA        141       1     439     446     447     440     488     495+EL   3X
+EL   3X     496     489                                                        
CHEXA        142       1     440     447     448     441     489     496+EL   3Y
+EL   3Y     497     490                                                        
CHEXA        143       1     441     448     449     442     490     497+EL   3Z
+EL   3Z     498     491                                                        
CHEXA        144       1     442     449     374     373     491     498+EL   40
+EL   40     367     366                                                        
CHEXA        145       1     160     167     450     443     159     166+EL   41
+EL   41     499     492                                                        
CHEXA        146       1     443     450     451     444     492     499+EL   42
+EL   42     500     493                                                        
CHEXA        147       1     444     451     452     445     493     500+EL   43
+EL   43     501     494                                                        
CHEXA        148       1     445     452     453     446     494     501+EL   44
+EL   44     502     495                                                        
CHEXA        149       1     446     453     454     447     495     502+EL   45
+EL   45     503     496                                                        
CHEXA        150       1     447     454     455     448     496     503+EL   46
+EL   46     504     497                                                        
CHEXA        151       1     448     455     456     449     497     504+EL   47
+EL   47     505     498                                                        
CHEXA        152       1     449     456     375     374     498     505+EL   48
+EL   48     368     367                                                        
CHEXA        153       1     167     174     457     450     166     173+EL   49
+EL   49     506     499                                                        
CHEXA        154       1     450     457     458     451     499     506+EL   4A
+EL   4A     507     500                                                        
CHEXA        155       1     451     458     459     452     500     507+EL   4B
+EL   4B     508     501                                                        
CHEXA        156       1     452     459     460     453     501     508+EL   4C
+EL   4C     509     502                                                        
CHEXA        157       1     453     460     461     454     502     509+EL   4D
+EL   4D     510     503                                                        
CHEXA        158       1     454     461     462     455     503     510+EL   4E
+EL   4E     511     504                                                        
CHEXA        159       1     455     462     463     456     504     511+EL   4F
+EL   4F     512     505                                                        
CHEXA        160       1     456     463     376     375     505     512+EL   4G
+EL   4G     369     368                                                        
CHEXA        161       1     174     181     464     457     173     180+EL   4H
+EL   4H     513     506                                                        
CHEXA        162       1     457     464     465     458     506     513+EL   4I
+EL   4I     514     507                                                        
CHEXA        163       1     458     465     466     459     507     514+EL   4J
+EL   4J     515     508                                                        
CHEXA        164       1     459     466     467     460     508     515+EL   4K
+EL   4K     516     509                                                        
CHEXA        165       1     460     467     468     461     509     516+EL   4L
+EL   4L     517     510                                                        
CHEXA        166       1     461     468     469     462     510     517+EL   4M
+EL   4M     518     511                                                        
CHEXA        167       1     462     469     470     463     511     518+EL   4N
+EL   4N     519     512                                                        
CHEXA        168       1     463     470     377     376     512     519+EL   4O
+EL   4O     370     369                                                        
CHEXA        169       1     181     188     471     464     180     187+EL   4P
+EL   4P     520     513                                                        
CHEXA        170       1     464     471     472     465     513     520+EL   4Q
+EL   4Q     521     514                                                        
CHEXA        171       1     465     472     473     466     514     521+EL   4R
+EL   4R     522     515                                                        
CHEXA        172       1     466     473     474     467     515     522+EL   4S
+EL   4S     523     516                                                        
CHEXA        173       1     467     474     475     468     516     523+EL   4T
+EL   4T     524     517                                                        
CHEXA        174       1     468     475     476     469     517     524+EL   4U
+EL   4U     525     518                                                        
CHEXA        175       1     469     476     477     470     518     525+EL   4V
+EL   4V     526     519                                                        
CHEXA        176       1     470     477     378     377     519     526+EL   4W
+EL   4W     371     370                                                        
CHEXA        177       1     188     195     478     471     187     194+EL   4X
+EL   4X     527     520                                                        
CHEXA        178       1     471     478     479     472     520     527+EL   4Y
+EL   4Y     528     521                                                        
CHEXA        179       1     472     479     480     473     521     528+EL   4Z
+EL   4Z     529     522                                                        
CHEXA        180       1     473     480     481     474     522     529+EL   50
+EL   50     530     523                                                        
CHEXA        181       1     474     481     482     475     523     530+EL   51
+EL   51     531     524                                                        
CHEXA        182       1     475     482     483     476     524     531+EL   52
+EL   52     532     525                                                        
CHEXA        183       1     476     483     484     477     525     532+EL   53
+EL   53     533     526                                                        
CHEXA        184       1     477     484     379     378     526     533+EL   54
+EL   54     372     371                                                        
CHEXA        185       1     195     198     221     478     194     138+EL   55
+EL   55     220     527                                                        
CHEXA        186       1     478     221     228     479     527     220+EL   56
+EL   56     227     528                                                        
CHEXA        187       1     479     228     235     480     528     227+EL   57
+EL   57     234     529                                                        
CHEXA        188       1     480     235     242     481     529     234+EL   58
+EL   58     241     530                                                        
CHEXA        189       1     481     242     249     482     530     241+EL   59
+EL   59     248     531                                                        
CHEXA        190       1     482     249     256     483     531     248+EL   5A
+EL   5A     255     532                                                        
CHEXA        191       1     483     256     263     484     532     255+EL   5B
+EL   5B     262     533                                                        
CHEXA        192       1     484     263     206     379     533     262+EL   5C
+EL   5C     207     372                                                        
CHEXA        193       1     130     152     485     123     129     151+EL   5D
+EL   5D     534     122                                                        
CHEXA        194       1     123     485     486     116     122     534+EL   5E
+EL   5E     535     115                                                        
CHEXA        195       1     116     486     487     109     115     535+EL   5F
+EL   5F     536     108                                                        
CHEXA        196       1     109     487     488     102     108     536+EL   5G
+EL   5G     537     101                                                        
CHEXA        197       1     102     488     489      95     101     537+EL   5H
+EL   5H     538      94                                                        
CHEXA        198       1      95     489     490      88      94     538+EL   5I
+EL   5I     539      87                                                        
CHEXA        199       1      88     490     491      81      87     539+EL   5J
+EL   5J     540      80                                                        
CHEXA        200       1      81     491     366      66      80     540+EL   5K
+EL   5K     359     335                                                        
CHEXA        201       1     152     159     492     485     151     158+EL   5L
+EL   5L     541     534                                                        
CHEXA        202       1     485     492     493     486     534     541+EL   5M
+EL   5M     542     535                                                        
CHEXA        203       1     486     493     494     487     535     542+EL   5N
+EL   5N     543     536                                                        
CHEXA        204       1     487     494     495     488     536     543+EL   5O
+EL   5O     544     537                                                        
CHEXA        205       1     488     495     496     489     537     544+EL   5P
+EL   5P     545     538                                                        
CHEXA        206       1     489     496     497     490     538     545+EL   5Q
+EL   5Q     546     539                                                        
CHEXA        207       1     490     497     498     491     539     546+EL   5R
+EL   5R     547     540                                                        
CHEXA        208       1     491     498     367     366     540     547+EL   5S
+EL   5S     360     359                                                        
CHEXA        209       1     159     166     499     492     158     165+EL   5T
+EL   5T     548     541                                                        
CHEXA        210       1     492     499     500     493     541     548+EL   5U
+EL   5U     549     542                                                        
CHEXA        211       1     493     500     501     494     542     549+EL   5V
+EL   5V     550     543                                                        
CHEXA        212       1     494     501     502     495     543     550+EL   5W
+EL   5W     551     544                                                        
CHEXA        213       1     495     502     503     496     544     551+EL   5X
+EL   5X     552     545                                                        
CHEXA        214       1     496     503     504     497     545     552+EL   5Y
+EL   5Y     553     546                                                        
CHEXA        215       1     497     504     505     498     546     553+EL   5Z
+EL   5Z     554     547                                                        
CHEXA        216       1     498     505     368     367     547     554+EL   60
+EL   60     361     360                                                        
CHEXA        217       1     166     173     506     499     165     172+EL   61
+EL   61     555     548                                                        
CHEXA        218       1     499     506     507     500     548     555+EL   62
+EL   62     556     549                                                        
CHEXA        219       1     500     507     508     501     549     556+EL   63
+EL   63     557     550                                                        
CHEXA        220       1     501     508     509     502     550     557+EL   64
+EL   64     558     551                                                        
CHEXA        221       1     502     509     510     503     551     558+EL   65
+EL   65     559     552                                                        
CHEXA        222       1     503     510     511     504     552     559+EL   66
+EL   66     560     553                                                        
CHEXA        223       1     504     511     512     505     553     560+EL   67
+EL   67     561     554                                                        
CHEXA        224       1     505     512     369     368     554     561+EL   68
+EL   68     362     361                                                        
CHEXA        225       1     173     180     513     506     172     179+EL   69
+EL   69     562     555                                                        
CHEXA        226       1     506     513     514     507     555     562+EL   6A
+EL   6A     563     556                                                        
CHEXA        227       1     507     514     515     508     556     563+EL   6B
+EL   6B     564     557                                                        
CHEXA        228       1     508     515     516     509     557     564+EL   6C
+EL   6C     565     558                                                        
CHEXA        229       1     509     516     517     510     558     565+EL   6D
+EL   6D     566     559                                                        
CHEXA        230       1     510     517     518     511     559     566+EL   6E
+EL   6E     567     560                                                        
CHEXA        231       1     511     518     519     512     560     567+EL   6F
+EL   6F     568     561                                                        
CHEXA        232       1     512     519     370     369     561     568+EL   6G
+EL   6G     363     362                                                        
CHEXA        233       1     180     187     520     513     179     186+EL   6H
+EL   6H     569     562                                                        
CHEXA        234       1     513     520     521     514     562     569+EL   6I
+EL   6I     570     563                                                        
CHEXA        235       1     514     521     522     515     563     570+EL   6J
+EL   6J     571     564                                                        
CHEXA        236       1     515     522     523     516     564     571+EL   6K
+EL   6K     572     565                                                        
CHEXA        237       1     516     523     524     517     565     572+EL   6L
+EL   6L     573     566                                                        
CHEXA        238       1     517     524     525     518     566     573+EL   6M
+EL   6M     574     567                                                        
CHEXA        239       1     518     525     526     519     567     574+EL   6N
+EL   6N     575     568                                                        
CHEXA        240       1     519     526     371     370     568     575+EL   6O
+EL   6O     364     363                                                        
CHEXA        241       1     187     194     527     520     186     193+EL   6P
+EL   6P     576     569                                                        
CHEXA        242       1     520     527     528     521     569     576+EL   6Q
+EL   6Q     577     570                                                        
CHEXA        243       1     521     528     529     522     570     577+EL   6R
+EL   6R     578     571                                                        
CHEXA        244       1     522     529     530     523     571     578+EL   6S
+EL   6S     579     572                                                        
CHEXA        245       1     523     530     531     524     572     579+EL   6T
+EL   6T     580     573                                                        
CHEXA        246       1     524     531     532     525     573     580+EL   6U
+EL   6U     581     574                                                        
CHEXA        247       1     525     532     533     526     574     581+EL   6V
+EL   6V     582     575                                                        
CHEXA        248       1     526     533     372     371     575     582+EL   6W
+EL   6W     365     364                                                        
CHEXA        249       1     194     138     220     527     193     139+EL   6X
+EL   6X     219     576                                                        
CHEXA        250       1     527     220     227     528     576     219+EL   6Y
+EL   6Y     226     577                                                        
CHEXA        251       1     528     227     234     529     577     226+EL   6Z
+EL   6Z     233     578                                                        
CHEXA        252       1     529     234     241     530     578     233+EL   70
+EL   70     240     579                                                        
CHEXA        253       1     530     241     248     531     579     240+EL   71
+EL   71     247     580                                                        
CHEXA        254       1     531     248     255     532     580     247+EL   72
+EL   72     254     581                                                        
CHEXA        255       1     532     255     262     533     581     254+EL   73
+EL   73     261     582                                                        
CHEXA        256       1     533     262     207     372     582     261+EL   74
+EL   74     208     365                                                        
CHEXA        257       1     129     151     534     122     128     150+EL   75
+EL   75     583     121                                                        
CHEXA        258       1     122     534     535     115     121     583+EL   76
+EL   76     584     114                                                        
CHEXA        259       1     115     535     536     108     114     584+EL   77
+EL   77     585     107                                                        
CHEXA        260       1     108     536     537     101     107     585+EL   78
+EL   78     586     100                                                        
CHEXA        261       1     101     537     538      94     100     586+EL   79
+EL   79     587      93                                                        
CHEXA        262       1      94     538     539      87      93     587+EL   7A
+EL   7A     588      86                                                        
CHEXA        263       1      87     539     540      80      86     588+EL   7B
+EL   7B     589      79                                                        
CHEXA        264       1      80     540     359     335      79     589+EL   7C
+EL   7C     352     336                                                        
CHEXA        265       1     151     158     541     534     150     157+EL   7D
+EL   7D     590     583                                                        
CHEXA        266       1     534     541     542     535     583     590+EL   7E
+EL   7E     591     584                                                        
CHEXA        267       1     535     542     543     536     584     591+EL   7F
+EL   7F     592     585                                                        
CHEXA        268       1     536     543     544     537     585     592+EL   7G
+EL   7G     593     586                                                        
CHEXA        269       1     537     544     545     538     586     593+EL   7H
+EL   7H     594     587                                                        
CHEXA        270       1     538     545     546     539     587     594+EL   7I
+EL   7I     595     588                                                        
CHEXA        271       1     539     546     547     540     588     595+EL   7J
+EL   7J     596     589                                                        
CHEXA        272       1     540     547     360     359     589     596+EL   7K
+EL   7K     353     352                                                        
CHEXA        273       1     158     165     548     541     157     164+EL   7L
+EL   7L     597     590                                                        
CHEXA        274       1     541     548     549     542     590     597+EL   7M
+EL   7M     598     591                                                        
CHEXA        275       1     542     549     550     543     591     598+EL   7N
+EL   7N     599     592                                                        
CHEXA        276       1     543     550     551     544     592     599+EL   7O
+EL   7O     600     593                                                        
CHEXA        277       1     544     551     552     545     593     600+EL   7P
+EL   7P     601     594                                                        
CHEXA        278       1     545     552     553     546     594     601+EL   7Q
+EL   7Q     602     595                                                        
CHEXA        279       1     546     553     554     547     595     602+EL   7R
+EL   7R     603     596                                                        
CHEXA        280       1     547     554     361     360     596     603+EL   7S
+EL   7S     354     353                                                        
CHEXA        281       1     165     172     555     548     164     171+EL   7T
+EL   7T     604     597                                                        
CHEXA        282       1     548     555     556     549     597     604+EL   7U
+EL   7U     605     598                                                        
CHEXA        283       1     549     556     557     550     598     605+EL   7V
+EL   7V     606     599                                                        
CHEXA        284       1     550     557     558     551     599     606+EL   7W
+EL   7W     607     600                                                        
CHEXA        285       1     551     558     559     552     600     607+EL   7X
+EL   7X     608     601                                                        
CHEXA        286       1     552     559     560     553     601     608+EL   7Y
+EL   7Y     609     602                                                        
CHEXA        287       1     553     560     561     554     602     609+EL   7Z
+EL   7Z     610     603                                                        
CHEXA        288       1     554     561     362     361     603     610+EL   80
+EL   80     355     354                                                        
CHEXA        289       1     172     179     562     555     171     178+EL   81
+EL   81     611     604                                                        
CHEXA        290       1     555     562     563     556     604     611+EL   82
+EL   82     612     605                                                        
CHEXA        291       1     556     563     564     557     605     612+EL   83
+EL   83     613     606                                                        
CHEXA        292       1     557     564     565     558     606     613+EL   84
+EL   84     614     607                                                        
CHEXA        293       1     558     565     566     559     607     614+EL   85
+EL   85     615     608                                                        
CHEXA        294       1     559     566     567     560     608     615+EL   86
+EL   86     616     609                                                        
CHEXA        295       1     560     567     568     561     609     616+EL   87
+EL   87     617     610                                                        
CHEXA        296       1     561     568     363     362     610     617+EL   88
+EL   88     356     355                                                        
CHEXA        297       1     179     186     569     562     178     185+EL   89
+EL   89     618     611                                                        
CHEXA        298       1     562     569     570     563     611     618+EL   8A
+EL   8A     619     612                                                        
CHEXA        299       1     563     570     571     564     612     619+EL   8B
+EL   8B     620     613                                                        
CHEXA        300       1     564     571     572     565     613     620+EL   8C
+EL   8C     621     614                                                        
CHEXA        301       1     565     572     573     566     614     621+EL   8D
+EL   8D     622     615                                                        
CHEXA        302       1     566     573     574     567     615     622+EL   8E
+EL   8E     623     616                                                        
CHEXA        303       1     567     574     575     568     616     623+EL   8F
+EL   8F     624     617                                                        
CHEXA        304       1     568     575     364     363     617     624+EL   8G
+EL   8G     357     356                                                        
CHEXA        305       1     186     193     576     569     185     192+EL   8H
+EL   8H     625     618                                                        
CHEXA        306       1     569     576     577     570     618     625+EL   8I
+EL   8I     626     619                                                        
CHEXA        307       1     570     577     578     571     619     626+EL   8J
+EL   8J     627     620                                                        
CHEXA        308       1     571     578     579     572     620     627+EL   8K
+EL   8K     628     621                                                        
CHEXA        309       1     572     579     580     573     621     628+EL   8L
+EL   8L     629     622                                                        
CHEXA        310       1     573     580     581     574     622     629+EL   8M
+EL   8M     630     623                                                        
CHEXA        311       1     574     581     582     575     623     630+EL   8N
+EL   8N     631     624                                                        
CHEXA        312       1     575     582     365     364     624     631+EL   8O
+EL   8O     358     357                                                        
CHEXA        313       1     193     139     219     576     192     197+EL   8P
+EL   8P     218     625                                                        
CHEXA        314       1     576     219     226     577     625     218+EL   8Q
+EL   8Q     225     626                                                        
CHEXA        315       1     577     226     233     578     626     225+EL   8R
+EL   8R     232     627                                                        
CHEXA        316       1     578     233     240     579     627     232+EL   8S
+EL   8S     239     628                                                        
CHEXA        317       1     579     240     247     580     628     239+EL   8T
+EL   8T     246     629                                                        
CHEXA        318       1     580     247     254     581     629     246+EL   8U
+EL   8U     253     630                                                        
CHEXA        319       1     581     254     261     582     630     253+EL   8V
+EL   8V     260     631                                                        
CHEXA        320       1     582     261     208     365     631     260+EL   8W
+EL   8W     209     358                                                        
CHEXA        321       1     128     150     583     121      71     149+EL   8X
+EL   8X     632     120                                                        
CHEXA        322       1     121     583     584     114     120     632+EL   8Y
+EL   8Y     633     113                                                        
CHEXA        323       1     114     584     585     107     113     633+EL   8Z
+EL   8Z     634     106                                                        
CHEXA        324       1     107     585     586     100     106     634+EL   90
+EL   90     635      99                                                        
CHEXA        325       1     100     586     587      93      99     635+EL   91
+EL   91     636      92                                                        
CHEXA        326       1      93     587     588      86      92     636+EL   92
+EL   92     637      85                                                        
CHEXA        327       1      86     588     589      79      85     637+EL   93
+EL   93     638      78                                                        
CHEXA        328       1      79     589     352     336      78     638+EL   94
+EL   94     345     337                                                        
CHEXA        329       1     150     157     590     583     149     156+EL   95
+EL   95     639     632                                                        
CHEXA        330       1     583     590     591     584     632     639+EL   96
+EL   96     640     633                                                        
CHEXA        331       1     584     591     592     585     633     640+EL   97
+EL   97     641     634                                                        
CHEXA        332       1     585     592     593     586     634     641+EL   98
+EL   98     642     635                                                        
CHEXA        333       1     586     593     594     587     635     642+EL   99
+EL   99     643     636                                                        
CHEXA        334       1     587     594     595     588     636     643+EL   9A
+EL   9A     644     637                                                        
CHEXA        335       1     588     595     596     589     637     644+EL   9B
+EL   9B     645     638                                                        
CHEXA        336       1     589     596     353     352     638     645+EL   9C
+EL   9C     346     345                                                        
CHEXA        337       1     157     164     597     590     156     163+EL   9D
+EL   9D     646     639                                                        
CHEXA        338       1     590     597     598     591     639     646+EL   9E
+EL   9E     647     640                                                        
CHEXA        339       1     591     598     599     592     640     647+EL   9F
+EL   9F     648     641                                                        
CHEXA        340       1     592     599     600     593     641     648+EL   9G
+EL   9G     649     642                                                        
CHEXA        341       1     593     600     601     594     642     649+EL   9H
+EL   9H     650     643                                                        
CHEXA        342       1     594     601     602     595     643     650+EL   9I
+EL   9I     651     644                                                        
CHEXA        343       1     595     602     603     596     644     651+EL   9J
+EL   9J     652     645                                                        
CHEXA        344       1     596     603     354     353     645     652+EL   9K
+EL   9K     347     346                                                        
CHEXA        345       1     164     171     604     597     163     170+EL   9L
+EL   9L     653     646                                                        
CHEXA        346       1     597     604     605     598     646     653+EL   9M
+EL   9M     654     647                                                        
CHEXA        347       1     598     605     606     599     647     654+EL   9N
+EL   9N     655     648                                                        
CHEXA        348       1     599     606     607     600     648     655+EL   9O
+EL   9O     656     649                                                        
CHEXA        349       1     600     607     608     601     649     656+EL   9P
+EL   9P     657     650                                                        
CHEXA        350       1     601     608     609     602     650     657+EL   9Q
+EL   9Q     658     651                                                        
CHEXA        351       1     602     609     610     603     651     658+EL   9R
+EL   9R     659     652                                                        
CHEXA        352       1     603     610     355     354     652     659+EL   9S
+EL   9S     348     347                                                        
CHEXA        353       1     171     178     611     604     170     177+EL   9T
+EL   9T     660     653                                                        
CHEXA        354       1     604     611     612     605     653     660+EL   9U
+EL   9U     661     654                                                        
CHEXA        355       1     605     612     613     606     654     661+EL   9V
+EL   9V     662     655                                                        
CHEXA        356       1     606     613     614     607     655     662+EL   9W
+EL   9W     663     656                                                        
CHEXA        357       1     607     614     615     608     656     663+EL   9X
+EL   9X     664     657                                                        
CHEXA        358       1     608     615     616     609     657     664+EL   9Y
+EL   9Y     665     658                                                        
CHEXA        359       1     609     616     617     610     658     665+EL   9Z
+EL   9Z     666     659                                                        
CHEXA        360       1     610     617     356     355     659     666+EL   A0
+EL   A0     349     348                                                        
CHEXA        361       1     178     185     618     611     177     184+EL   A1
+EL   A1     667     660                                                        
CHEXA        362       1     611     618     619     612     660     667+EL   A2
+EL   A2     668     661                                                        
CHEXA        363       1     612     619     620     613     661     668+EL   A3
+EL   A3     669     662                                                        
CHEXA        364       1     613     620     621     614     662     669+EL   A4
+EL   A4     670     663                                                        
CHEXA        365       1     614     621     622     615     663     670+EL   A5
+EL   A5     671     664                                                        
CHEXA        366       1     615     622     623     616     664     671+EL   A6
+EL   A6     672     665                                                        
CHEXA        367       1     616     623     624     617     665     672+EL   A7
+EL   A7     673     666                                                        
CHEXA        368       1     617     624     357     356     666     673+EL   A8
+EL   A8     350     349                                                        
CHEXA        369       1     185     192     625     618     184     191+EL   A9
+EL   A9     674     667                                                        
CHEXA        370       1     618     625     626     619     667     674+EL   AA
+EL   AA     675     668                                                        
CHEXA        371       1     619     626     627     620     668     675+EL   AB
+EL   AB     676     669                                                        
CHEXA        372       1     620     627     628     621     669     676+EL   AC
+EL   AC     677     670                                                        
CHEXA        373       1     621     628     629     622     670     677+EL   AD
+EL   AD     678     671                                                        
CHEXA        374       1     622     629     630     623     671     678+EL   AE
+EL   AE     679     672                                                        
CHEXA        375       1     623     630     631     624     672     679+EL   AF
+EL   AF     680     673                                                        
CHEXA        376       1     624     631     358     357     673     680+EL   AG
+EL   AG     351     350                                                        
CHEXA        377       1     192     197     218     625     191     140+EL   AH
+EL   AH     217     674                                                        
CHEXA        378       1     625     218     225     626     674     217+EL   AI
+EL   AI     224     675                                                        
CHEXA        379       1     626     225     232     627     675     224+EL   AJ
+EL   AJ     231     676                                                        
CHEXA        380       1     627     232     239     628     676     231+EL   AK
+EL   AK     238     677                                                        
CHEXA        381       1     628     239     246     629     677     238+EL   AL
+EL   AL     245     678                                                        
CHEXA        382       1     629     246     253     630     678     245+EL   AM
+EL   AM     252     679                                                        
CHEXA        383       1     630     253     260     631     679     252+EL   AN
+EL   AN     259     680                                                        
CHEXA        384       1     631     260     209     358     680     259+EL   AO
+EL   AO     329     351                                                        
CHEXA        385       1      71     149     632     120     127     148+EL   AP
+EL   AP     681     119                                                        
CHEXA        386       1     120     632     633     113     119     681+EL   AQ
+EL   AQ     682     112                                                        
CHEXA        387       1     113     633     634     106     112     682+EL   AR
+EL   AR     683     105                                                        
CHEXA        388       1     106     634     635      99     105     683+EL   AS
+EL   AS     684      98                                                        
CHEXA        389       1      99     635     636      92      98     684+EL   AT
+EL   AT     685      91                                                        
CHEXA        390       1      92     636     637      85      91     685+EL   AU
+EL   AU     686      84                                                        
CHEXA        391       1      85     637     638      78      84     686+EL   AV
+EL   AV     687      77                                                        
CHEXA        392       1      78     638     345     337      77     687+EL   AW
+EL   AW     338      65                                                        
CHEXA        393       1     149     156     639     632     148     155+EL   AX
+EL   AX     688     681                                                        
CHEXA        394       1     632     639     640     633     681     688+EL   AY
+EL   AY     689     682                                                        
CHEXA        395       1     633     640     641     634     682     689+EL   AZ
+EL   AZ     690     683                                                        
CHEXA        396       1     634     641     642     635     683     690+EL   B0
+EL   B0     691     684                                                        
CHEXA        397       1     635     642     643     636     684     691+EL   B1
+EL   B1     692     685                                                        
CHEXA        398       1     636     643     644     637     685     692+EL   B2
+EL   B2     693     686                                                        
CHEXA        399       1     637     644     645     638     686     693+EL   B3
+EL   B3     694     687                                                        
CHEXA        400       1     638     645     346     345     687     694+EL   B4
+EL   B4     339     338                                                        
CHEXA        401       1     156     163     646     639     155     162+EL   B5
+EL   B5     695     688                                                        
CHEXA        402       1     639     646     647     640     688     695+EL   B6
+EL   B6     696     689                                                        
CHEXA        403       1     640     647     648     641     689     696+EL   B7
+EL   B7     697     690                                                        
CHEXA        404       1     641     648     649     642     690     697+EL   B8
+EL   B8     698     691                                                        
CHEXA        405       1     642     649     650     643     691     698+EL   B9
+EL   B9     699     692                                                        
CHEXA        406       1     643     650     651     644     692     699+EL   BA
+EL   BA     700     693                                                        
CHEXA        407       1     644     651     652     645     693     700+EL   BB
+EL   BB     701     694                                                        
CHEXA        408       1     645     652     347     346     694     701+EL   BC
+EL   BC     340     339                                                        
CHEXA        409       1     163     170     653     646     162     169+EL   BD
+EL   BD     702     695                                                        
CHEXA        410       1     646     653     654     647     695     702+EL   BE
+EL   BE     703     696                                                        
CHEXA        411       1     647     654     655     648     696     703+EL   BF
+EL   BF     704     697                                                        
CHEXA        412       1     648     655     656     649     697     704+EL   BG
+EL   BG     705     698                                                        
CHEXA        413       1     649     656     657     650     698     705+EL   BH
+EL   BH     706     699                                                        
CHEXA        414       1     650     657     658     651     699     706+EL   BI
+EL   BI     707     700                                                        
CHEXA        415       1     651     658     659     652     700     707+EL   BJ
+EL   BJ     708     701                                                        
CHEXA        416       1     652     659     348     347     701     708+EL   BK
+EL   BK     341     340                                                        
CHEXA        417       1     170     177     660     653     169     176+EL   BL
+EL   BL     709     702                                                        
CHEXA        418       1     653     660     661     654     702     709+EL   BM
+EL   BM     710     703                                                        
CHEXA        419       1     654     661     662     655     703     710+EL   BN
+EL   BN     711     704                                                        
CHEXA        420       1     655     662     663     656     704     711+EL   BO
+EL   BO     712     705                                                        
CHEXA        421       1     656     663     664     657     705     712+EL   BP
+EL   BP     713     706                                                        
CHEXA        422       1     657     664     665     658     706     713+EL   BQ
+EL   BQ     714     707                                                        
CHEXA        423       1     658     665     666     659     707     714+EL   BR
+EL   BR     715     708                                                        
CHEXA        424       1     659     666     349     348     708     715+EL   BS
+EL   BS     342     341                                                        
CHEXA        425       1     177     184     667     660     176     183+EL   BT
+EL   BT     716     709                                                        
CHEXA        426       1     660     667     668     661     709     716+EL   BU
+EL   BU     717     710                                                        
CHEXA        427       1     661     668     669     662     710     717+EL   BV
+EL   BV     718     711                                                        
CHEXA        428       1     662     669     670     663     711     718+EL   BW
+EL   BW     719     712                                                        
CHEXA        429       1     663     670     671     664     712     719+EL   BX
+EL   BX     720     713                                                        
CHEXA        430       1     664     671     672     665     713     720+EL   BY
+EL   BY     721     714                                                        
CHEXA        431       1     665     672     673     666     714     721+EL   BZ
+EL   BZ     722     715                                                        
CHEXA        432       1     666     673     350     349     715     722+EL   C0
+EL   C0     343     342                                                        
CHEXA        433       1     184     191     674     667     183     190+EL   C1
+EL   C1     723     716                                                        
CHEXA        434       1     667     674     675     668     716     723+EL   C2
+EL   C2     724     717                                                        
CHEXA        435       1     668     675     676     669     717     724+EL   C3
+EL   C3     725     718                                                        
CHEXA        436       1     669     676     677     670     718     725+EL   C4
+EL   C4     726     719                                                        
CHEXA        437       1     670     677     678     671     719     726+EL   C5
+EL   C5     727     720                                                        
CHEXA        438       1     671     678     679     672     720     727+EL   C6
+EL   C6     728     721                                                        
CHEXA        439       1     672     679     680     673     721     728+EL   C7
+EL   C7     729     722                                                        
CHEXA        440       1     673     680     351     350     722     729+EL   C8
+EL   C8     344     343                                                        
CHEXA        441       1     191     140     217     674     190     141+EL   C9
+EL   C9     216     723                                                        
CHEXA        442       1     674     217     224     675     723     216+EL   CA
+EL   CA     223     724                                                        
CHEXA        443       1     675     224     231     676     724     223+EL   CB
+EL   CB     230     725                                                        
CHEXA        444       1     676     231     238     677     725     230+EL   CC
+EL   CC     237     726                                                        
CHEXA        445       1     677     238     245     678     726     237+EL   CD
+EL   CD     244     727                                                        
CHEXA        446       1     678     245     252     679     727     244+EL   CE
+EL   CE     251     728                                                        
CHEXA        447       1     679     252     259     680     728     251+EL   CF
+EL   CF     258     729                                                        
CHEXA        448       1     680     259     329     351     729     258+EL   CG
+EL   CG     210     344                                                        
CHEXA        449       1     127     148     681     119     126     147+EL   CH
+EL   CH     324     271                                                        
CHEXA        450       1     119     681     682     112     271     324+EL   CI
+EL   CI     317      72                                                        
CHEXA        451       1     112     682     683     105      72     317+EL   CJ
+EL   CJ     310     270                                                        
CHEXA        452       1     105     683     684      98     270     310+EL   CK
+EL   CK     303      73                                                        
CHEXA        453       1      98     684     685      91      73     303+EL   CL
+EL   CL     296      74                                                        
CHEXA        454       1      91     685     686      84      74     296+EL   CM
+EL   CM     289      75                                                        
CHEXA        455       1      84     686     687      77      75     289+EL   CN
+EL   CN     282      76                                                        
CHEXA        456       1      77     687     338      65      76     282+EL   CO
+EL   CO     325     269                                                        
CHEXA        457       1     148     155     688     681     147     146+EL   CP
+EL   CP     323     324                                                        
CHEXA        458       1     681     688     689     682     324     323+EL   CQ
+EL   CQ     316     317                                                        
CHEXA        459       1     682     689     690     683     317     316+EL   CR
+EL   CR     309     310                                                        
CHEXA        460       1     683     690     691     684     310     309+EL   CS
+EL   CS     302     303                                                        
CHEXA        461       1     684     691     692     685     303     302+EL   CT
+EL   CT     295     296                                                        
CHEXA        462       1     685     692     693     686     296     295+EL   CU
+EL   CU     288     289                                                        
CHEXA        463       1     686     693     694     687     289     288+EL   CV
+EL   CV     281     282                                                        
CHEXA        464       1     687     694     339     338     282     281+EL   CW
+EL   CW     268     325                                                        
CHEXA        465       1     155     162     695     688     146     272+EL   CX
+EL   CX     322     323                                                        
CHEXA        466       1     688     695     696     689     323     322+EL   CY
+EL   CY     315     316                                                        
CHEXA        467       1     689     696     697     690     316     315+EL   CZ
+EL   CZ     308     309                                                        
CHEXA        468       1     690     697     698     691     309     308+EL   D0
+EL   D0     301     302                                                        
CHEXA        469       1     691     698     699     692     302     301+EL   D1
+EL   D1     294     295                                                        
CHEXA        470       1     692     699     700     693     295     294+EL   D2
+EL   D2     287     288                                                        
CHEXA        471       1     693     700     701     694     288     287+EL   D3
+EL   D3     280     281                                                        
CHEXA        472       1     694     701     340     339     281     280+EL   D4
+EL   D4     267     268                                                        
CHEXA        473       1     162     169     702     695     272     273+EL   D5
+EL   D5     321     322                                                        
CHEXA        474       1     695     702     703     696     322     321+EL   D6
+EL   D6     314     315                                                        
CHEXA        475       1     696     703     704     697     315     314+EL   D7
+EL   D7     307     308                                                        
CHEXA        476       1     697     704     705     698     308     307+EL   D8
+EL   D8     300     301                                                        
CHEXA        477       1     698     705     706     699     301     300+EL   D9
+EL   D9     293     294                                                        
CHEXA        478       1     699     706     707     700     294     293+EL   DA
+EL   DA     286     287                                                        
CHEXA        479       1     700     707     708     701     287     286+EL   DB
+EL   DB     279     280                                                        
CHEXA        480       1     701     708     341     340     280     279+EL   DC
+EL   DC     266     267                                                        
CHEXA        481       1     169     176     709     702     273     145+EL   DD
+EL   DD     320     321                                                        
CHEXA        482       1     702     709     710     703     321     320+EL   DE
+EL   DE     313     314                                                        
CHEXA        483       1     703     710     711     704     314     313+EL   DF
+EL   DF     306     307                                                        
CHEXA        484       1     704     711     712     705     307     306+EL   DG
+EL   DG     299     300                                                        
CHEXA        485       1     705     712     713     706     300     299+EL   DH
+EL   DH     292     293                                                        
CHEXA        486       1     706     713     714     707     293     292+EL   DI
+EL   DI     285     286                                                        
CHEXA        487       1     707     714     715     708     286     285+EL   DJ
+EL   DJ     278     279                                                        
CHEXA        488       1     708     715     342     341     279     278+EL   DK
+EL   DK     326     266                                                        
CHEXA        489       1     176     183     716     709     145     144+EL   DL
+EL   DL     319     320                                                        
CHEXA        490       1     709     716     717     710     320     319+EL   DM
+EL   DM     312     313                                                        
CHEXA        491       1     710     717     718     711     313     312+EL   DN
+EL   DN     305     306                                                        
CHEXA        492       1     711     718     719     712     306     305+EL   DO
+EL   DO     298     299                                                        
CHEXA        493       1     712     719     720     713     299     298+EL   DP
+EL   DP     291     292                                                        
CHEXA        494       1     713     720     721     714     292     291+EL   DQ
+EL   DQ     284     285                                                        
CHEXA        495       1     714     721     722     715     285     284+EL   DR
+EL   DR     277     278                                                        
CHEXA        496       1     715     722     343     342     278     277+EL   DS
+EL   DS     327     326                                                        
CHEXA        497       1     183     190     723     716     144     143+EL   DT
+EL   DT     318     319                                                        
CHEXA        498       1     716     723     724     717     319     318+EL   DU
+EL   DU     311     312                                                        
CHEXA        499       1     717     724     725     718     312     311+EL   DV
+EL   DV     304     305                                                        
CHEXA        500       1     718     725     726     719     305     304+EL   DW
+EL   DW     297     298                                                        
CHEXA        501       1     719     726     727     720     298     297+EL   DX
+EL   DX     290     291                                                        
CHEXA        502       1     720     727     728     721     291     290+EL   DY
+EL   DY     283     284                                                        
CHEXA        503       1     721     728     729     722     284     283+EL   DZ
+EL   DZ     276     277                                                        
CHEXA        504       1     722     729     344     343     277     276+EL   E0
+EL   E0     328     327                                                        
CHEXA        505       1     190     141     216     723     143     142+EL   E1
+EL   E1     215     318                                                        
CHEXA        506       1     723     216     223     724     318     215+EL   E2
+EL   E2     214     311                                                        
CHEXA        507       1     724     223     230     725     311     214+EL   E3
+EL   E3     213     304                                                        
CHEXA        508       1     725     230     237     726     304     213+EL   E4
+EL   E4     274     297                                                        
CHEXA        509       1     726     237     244     727     297     274+EL   E5
+EL   E5     275     290                                                        
CHEXA        510       1     727     244     251     728     290     275+EL   E6
+EL   E6     212     283                                                        
CHEXA        511       1     728     251     258     729     283     212+EL   E7
+EL   E7     211     276                                                        
CHEXA        512       1     729     258     210     344     276     211+EL   E8
+EL   E8     265     328                                                        
ENDDATA
