ID FEMAP,FEMAP
SOL SESTATICS
TIME 10000
CEND
  ECHO = NONE
  DISPLACEMENT(PLOT) = ALL
  SPCFORCE(PLOT) = ALL
  OLOAD(PLOT) = ALL
  FORCE(PLOT,CORNER) = ALL
  STRESS(PLOT,CORNER) = ALL
BEGIN BULK
$ ***************************************************************************
$   Written by : FEMAP
$   Version    : 7.00
$   Translator : MSC/NASTRAN
$   From Model : 
$   Date       : Fri Apr 09 10:40:23 2010
$ ***************************************************************************
$
PARAM,POST,-1
PARAM,OGEOM,NO
PARAM,AUTOSPC,YES
PARAM,GRDPNT,0
CORD2C         1       0      0.      0.      0.      0.      0.      1.+FEMAPC1
+FEMAPC1      1.      0.      1.
CORD2S         2       0      0.      0.      0.      0.      0.      1.+FEMAPC2
+FEMAPC2      1.      0.      1.
$ FEMAP Property 1 : Untitled
PSOLID         1       1       0        
$ FEMAP Material 1 : Untitled
MAT1           1                              0.      0.      0.        
GRID           1       0 0.16667      0.      1.       0        
GRID           2       0 0.33333      0.      1.       0        
GRID           3       0     0.5      0.      1.       0        
GRID           4       0 0.66667      0.      1.       0        
GRID           5       0 0.83333      0.      1.       0        
GRID           6       0      1.      0.      1.       0        
GRID           7       0      1. 0.33333      1.       0        
GRID           8       0      1.     0.5      1.       0        
GRID           9       0      1. 0.66667      1.       0        
GRID          10       0      1.      1.      1.       0        
GRID          11       0 0.83333      1.      1.       0        
GRID          12       0 0.33333      1.      1.       0        
GRID          13       0      0. 0.83333      1.       0        
GRID          14       0      0. 0.33333      1.       0        
GRID          15       0      0. 0.16667      1.       0        
GRID          16       0 0.16667 0.16667      1.       0        
GRID          17       0 0.33333 0.16667      1.       0        
GRID          18       0     0.5 0.16667      1.       0        
GRID          19       0 0.66667 0.16667      1.       0        
GRID          20       0 0.83333 0.16667      1.       0        
$ ... 323 like lines cut
CHEXA          1       1      77      15      16       1      76      91+EL    1
+EL    1     219      71                                                        
CHEXA          2       1       1      16      17       2      71     219+EL    2
+EL    2     220      66                                                        
CHEXA          3       1       2      17      18       3      66     220+EL    3
+EL    3     221      61                                                        
CHEXA          4       1       3      18      19       4      61     221+EL    4
+EL    4     222      56                                                        
CHEXA          5       1       4      19      20       5      56     222+EL    5
+EL    5     223      51                                                        
CHEXA          6       1       5      20     190       6      51     223+EL    6
+EL    6     214      42                                                        
CHEXA          7       1      15      14      21      16      91      96+EL    7
+EL    7     224     219                                                        
CHEXA          8       1      16      21      22      17     219     224+EL    8
+EL    8     225     220                                                        
CHEXA          9       1      17      22      23      18     220     225+EL    9
+EL    9     226     221                                                        
CHEXA         10       1      18      23      24      19     221     226+EL    A
+EL    A     227     222                                                        
CHEXA         11       1      19      24      25      20     222     227+EL    B
+EL    B     228     223                                                        
CHEXA         12       1      20      25       7     190     223     228+EL    C
+EL    C     215     214                                                        
CHEXA         13       1      14      78      26      21      96     101+EL    D
+EL    D     229     224                                                        
CHEXA         14       1      21      26      27      22     224     229+EL    E
+EL    E     230     225                                                        
CHEXA         15       1      22      27      28      23     225     230+EL    F
+EL    F     231     226                                                        
CHEXA         16       1      23      28      29      24     226     231+EL    G
+EL    G     232     227                                                        
CHEXA         17       1      24      29      30      25     227     232+EL    H
+EL    H     233     228                                                        
CHEXA         18       1      25      30       8       7     228     233+EL    I
+EL    I     216     215                                                        
CHEXA         19       1      78      79      31      26     101     106+EL    J
+EL    J     234     229                                                        
CHEXA         20       1      26      31      32      27     229     234+EL    K
+EL    K     235     230                                                        
CHEXA         21       1      27      32      33      28     230     235+EL    L
+EL    L     236     231                                                        
CHEXA         22       1      28      33      34      29     231     236+EL    M
+EL    M     237     232                                                        
CHEXA         23       1      29      34      35      30     232     237+EL    N
+EL    N     238     233                                                        
CHEXA         24       1      30      35       9       8     233     238+EL    O
+EL    O     217     216                                                        
CHEXA         25       1      79      13      36      31     106     111+EL    P
+EL    P     239     234                                                        
CHEXA         26       1      31      36      37      32     234     239+EL    Q
+EL    Q     240     235                                                        
CHEXA         27       1      32      37      38      33     235     240+EL    R
+EL    R     241     236                                                        
CHEXA         28       1      33      38      39      34     236     241+EL    S
+EL    S     242     237                                                        
CHEXA         29       1      34      39      40      35     237     242+EL    T
+EL    T     243     238                                                        
CHEXA         30       1      35      40     189       9     238     243+EL    U
+EL    U     218     217                                                        
CHEXA         31       1      13      80     114      36     111      81+EL    V
+EL    V     128     239                                                        
CHEXA         32       1      36     114      12      37     239     128+EL    W
+EL    W     133     240                                                        
CHEXA         33       1      37      12     115      38     240     133+EL    X
+EL    X     138     241                                                        
CHEXA         34       1      38     115     116      39     241     138+EL    Y
+EL    Y     143     242                                                        
CHEXA         35       1      39     116      11      40     242     143+EL    Z
+EL    Z     148     243                                                        
CHEXA         36       1      40      11      10     189     243     148+EL   10
+EL   10     117     218                                                        
CHEXA         37       1      76      91     219      71      75      90+EL   11
+EL   11     244      70                                                        
CHEXA         38       1      71     219     220      66      70     244+EL   12
+EL   12     245      65                                                        
CHEXA         39       1      66     220     221      61      65     245+EL   13
+EL   13     246      60                                                        
CHEXA         40       1      61     221     222      56      60     246+EL   14
+EL   14     247      55                                                        
CHEXA         41       1      56     222     223      51      55     247+EL   15
+EL   15     248      50                                                        
CHEXA         42       1      51     223     214      42      50     248+EL   16
+EL   16     209     191                                                        
CHEXA         43       1      91      96     224     219      90      95+EL   17
+EL   17     249     244                                                        
CHEXA         44       1     219     224     225     220     244     249+EL   18
+EL   18     250     245                                                        
CHEXA         45       1     220     225     226     221     245     250+EL   19
+EL   19     251     246                                                        
CHEXA         46       1     221     226     227     222     246     251+EL   1A
+EL   1A     252     247                                                        
CHEXA         47       1     222     227     228     223     247     252+EL   1B
+EL   1B     253     248                                                        
CHEXA         48       1     223     228     215     214     248     253+EL   1C
+EL   1C     210     209                                                        
CHEXA         49       1      96     101     229     224      95     100+EL   1D
+EL   1D     254     249                                                        
CHEXA         50       1     224     229     230     225     249     254+EL   1E
+EL   1E     255     250                                                        
CHEXA         51       1     225     230     231     226     250     255+EL   1F
+EL   1F     256     251                                                        
CHEXA         52       1     226     231     232     227     251     256+EL   1G
+EL   1G     257     252                                                        
CHEXA         53       1     227     232     233     228     252     257+EL   1H
+EL   1H     258     253                                                        
CHEXA         54       1     228     233     216     215     253     258+EL   1I
+EL   1I     211     210                                                        
CHEXA         55       1     101     106     234     229     100     105+EL   1J
+EL   1J     259     254                                                        
CHEXA         56       1     229     234     235     230     254     259+EL   1K
+EL   1K     260     255                                                        
CHEXA         57       1     230     235     236     231     255     260+EL   1L
+EL   1L     261     256                                                        
CHEXA         58       1     231     236     237     232     256     261+EL   1M
+EL   1M     262     257                                                        
CHEXA         59       1     232     237     238     233     257     262+EL   1N
+EL   1N     263     258                                                        
CHEXA         60       1     233     238     217     216     258     263+EL   1O
+EL   1O     212     211                                                        
CHEXA         61       1     106     111     239     234     105     110+EL   1P
+EL   1P     264     259                                                        
CHEXA         62       1     234     239     240     235     259     264+EL   1Q
+EL   1Q     265     260                                                        
CHEXA         63       1     235     240     241     236     260     265+EL   1R
+EL   1R     266     261                                                        
CHEXA         64       1     236     241     242     237     261     266+EL   1S
+EL   1S     267     262                                                        
CHEXA         65       1     237     242     243     238     262     267+EL   1T
+EL   1T     268     263                                                        
CHEXA         66       1     238     243     218     217     263     268+EL   1U
+EL   1U     213     212                                                        
CHEXA         67       1     111      81     128     239     110      82+EL   1V
+EL   1V     127     264                                                        
CHEXA         68       1     239     128     133     240     264     127+EL   1W
+EL   1W     132     265                                                        
CHEXA         69       1     240     133     138     241     265     132+EL   1X
+EL   1X     137     266                                                        
CHEXA         70       1     241     138     143     242     266     137+EL   1Y
+EL   1Y     142     267                                                        
CHEXA         71       1     242     143     148     243     267     142+EL   1Z
+EL   1Z     147     268                                                        
CHEXA         72       1     243     148     117     218     268     147+EL   20
+EL   20     118     213                                                        
CHEXA         73       1      75      90     244      70      74      89+EL   21
+EL   21     269      69                                                        
CHEXA         74       1      70     244     245      65      69     269+EL   22
+EL   22     270      64                                                        
CHEXA         75       1      65     245     246      60      64     270+EL   23
+EL   23     271      59                                                        
CHEXA         76       1      60     246     247      55      59     271+EL   24
+EL   24     272      54                                                        
CHEXA         77       1      55     247     248      50      54     272+EL   25
+EL   25     273      49                                                        
CHEXA         78       1      50     248     209     191      49     273+EL   26
+EL   26     204      41                                                        
CHEXA         79       1      90      95     249     244      89      94+EL   27
+EL   27     274     269                                                        
CHEXA         80       1     244     249     250     245     269     274+EL   28
+EL   28     275     270                                                        
CHEXA         81       1     245     250     251     246     270     275+EL   29
+EL   29     276     271                                                        
CHEXA         82       1     246     251     252     247     271     276+EL   2A
+EL   2A     277     272                                                        
CHEXA         83       1     247     252     253     248     272     277+EL   2B
+EL   2B     278     273                                                        
CHEXA         84       1     248     253     210     209     273     278+EL   2C
+EL   2C     205     204                                                        
CHEXA         85       1      95     100     254     249      94      99+EL   2D
+EL   2D     279     274                                                        
CHEXA         86       1     249     254     255     250     274     279+EL   2E
+EL   2E     280     275                                                        
CHEXA         87       1     250     255     256     251     275     280+EL   2F
+EL   2F     281     276                                                        
CHEXA         88       1     251     256     257     252     276     281+EL   2G
+EL   2G     282     277                                                        
CHEXA         89       1     252     257     258     253     277     282+EL   2H
+EL   2H     283     278                                                        
CHEXA         90       1     253     258     211     210     278     283+EL   2I
+EL   2I     206     205                                                        
CHEXA         91       1     100     105     259     254      99     104+EL   2J
+EL   2J     284     279                                                        
CHEXA         92       1     254     259     260     255     279     284+EL   2K
+EL   2K     285     280                                                        
CHEXA         93       1     255     260     261     256     280     285+EL   2L
+EL   2L     286     281                                                        
CHEXA         94       1     256     261     262     257     281     286+EL   2M
+EL   2M     287     282                                                        
CHEXA         95       1     257     262     263     258     282     287+EL   2N
+EL   2N     288     283                                                        
CHEXA         96       1     258     263     212     211     283     288+EL   2O
+EL   2O     207     206                                                        
CHEXA         97       1     105     110     264     259     104     109+EL   2P
+EL   2P     289     284                                                        
CHEXA         98       1     259     264     265     260     284     289+EL   2Q
+EL   2Q     290     285                                                        
CHEXA         99       1     260     265     266     261     285     290+EL   2R
+EL   2R     291     286                                                        
CHEXA        100       1     261     266     267     262     286     291+EL   2S
+EL   2S     292     287                                                        
CHEXA        101       1     262     267     268     263     287     292+EL   2T
+EL   2T     293     288                                                        
CHEXA        102       1     263     268     213     212     288     293+EL   2U
+EL   2U     208     207                                                        
CHEXA        103       1     110      82     127     264     109     113+EL   2V
+EL   2V     126     289                                                        
CHEXA        104       1     264     127     132     265     289     126+EL   2W
+EL   2W     131     290                                                        
CHEXA        105       1     265     132     137     266     290     131+EL   2X
+EL   2X     136     291                                                        
CHEXA        106       1     266     137     142     267     291     136+EL   2Y
+EL   2Y     141     292                                                        
CHEXA        107       1     267     142     147     268     292     141+EL   2Z
+EL   2Z     146     293                                                        
CHEXA        108       1     268     147     118     213     293     146+EL   30
+EL   30     119     208                                                        
CHEXA        109       1      74      89     269      69      43      88+EL   31
+EL   31     294      68                                                        
CHEXA        110       1      69     269     270      64      68     294+EL   32
+EL   32     295      63                                                        
CHEXA        111       1      64     270     271      59      63     295+EL   33
+EL   33     296      58                                                        
CHEXA        112       1      59     271     272      54      58     296+EL   34
+EL   34     297      53                                                        
CHEXA        113       1      54     272     273      49      53     297+EL   35
+EL   35     298      48                                                        
CHEXA        114       1      49     273     204      41      48     298+EL   36
+EL   36     199     192                                                        
CHEXA        115       1      89      94     274     269      88      93+EL   37
+EL   37     299     294                                                        
CHEXA        116       1     269     274     275     270     294     299+EL   38
+EL   38     300     295                                                        
CHEXA        117       1     270     275     276     271     295     300+EL   39
+EL   39     301     296                                                        
CHEXA        118       1     271     276     277     272     296     301+EL   3A
+EL   3A     302     297                                                        
CHEXA        119       1     272     277     278     273     297     302+EL   3B
+EL   3B     303     298                                                        
CHEXA        120       1     273     278     205     204     298     303+EL   3C
+EL   3C     200     199                                                        
CHEXA        121       1      94      99     279     274      93      98+EL   3D
+EL   3D     304     299                                                        
CHEXA        122       1     274     279     280     275     299     304+EL   3E
+EL   3E     305     300                                                        
CHEXA        123       1     275     280     281     276     300     305+EL   3F
+EL   3F     306     301                                                        
CHEXA        124       1     276     281     282     277     301     306+EL   3G
+EL   3G     307     302                                                        
CHEXA        125       1     277     282     283     278     302     307+EL   3H
+EL   3H     308     303                                                        
CHEXA        126       1     278     283     206     205     303     308+EL   3I
+EL   3I     201     200                                                        
CHEXA        127       1      99     104     284     279      98     103+EL   3J
+EL   3J     309     304                                                        
CHEXA        128       1     279     284     285     280     304     309+EL   3K
+EL   3K     310     305                                                        
CHEXA        129       1     280     285     286     281     305     310+EL   3L
+EL   3L     311     306                                                        
CHEXA        130       1     281     286     287     282     306     311+EL   3M
+EL   3M     312     307                                                        
CHEXA        131       1     282     287     288     283     307     312+EL   3N
+EL   3N     313     308                                                        
CHEXA        132       1     283     288     207     206     308     313+EL   3O
+EL   3O     202     201                                                        
CHEXA        133       1     104     109     289     284     103     108+EL   3P
+EL   3P     314     309                                                        
CHEXA        134       1     284     289     290     285     309     314+EL   3Q
+EL   3Q     315     310                                                        
CHEXA        135       1     285     290     291     286     310     315+EL   3R
+EL   3R     316     311                                                        
CHEXA        136       1     286     291     292     287     311     316+EL   3S
+EL   3S     317     312                                                        
CHEXA        137       1     287     292     293     288     312     317+EL   3T
+EL   3T     318     313                                                        
CHEXA        138       1     288     293     208     207     313     318+EL   3U
+EL   3U     203     202                                                        
CHEXA        139       1     109     113     126     289     108      83+EL   3V
+EL   3V     125     314                                                        
CHEXA        140       1     289     126     131     290     314     125+EL   3W
+EL   3W     130     315                                                        
CHEXA        141       1     290     131     136     291     315     130+EL   3X
+EL   3X     135     316                                                        
CHEXA        142       1     291     136     141     292     316     135+EL   3Y
+EL   3Y     140     317                                                        
CHEXA        143       1     292     141     146     293     317     140+EL   3Z
+EL   3Z     145     318                                                        
CHEXA        144       1     293     146     119     208     318     145+EL   40
+EL   40     188     203                                                        
CHEXA        145       1      43      88     294      68      73      87+EL   41
+EL   41     319      67                                                        
CHEXA        146       1      68     294     295      63      67     319+EL   42
+EL   42     320      62                                                        
CHEXA        147       1      63     295     296      58      62     320+EL   43
+EL   43     321      57                                                        
CHEXA        148       1      58     296     297      53      57     321+EL   44
+EL   44     322      52                                                        
CHEXA        149       1      53     297     298      48      52     322+EL   45
+EL   45     323      47                                                        
CHEXA        150       1      48     298     199     192      47     323+EL   46
+EL   46     194     193                                                        
CHEXA        151       1      88      93     299     294      87      92+EL   47
+EL   47     324     319                                                        
CHEXA        152       1     294     299     300     295     319     324+EL   48
+EL   48     325     320                                                        
CHEXA        153       1     295     300     301     296     320     325+EL   49
+EL   49     326     321                                                        
CHEXA        154       1     296     301     302     297     321     326+EL   4A
+EL   4A     327     322                                                        
CHEXA        155       1     297     302     303     298     322     327+EL   4B
+EL   4B     328     323                                                        
CHEXA        156       1     298     303     200     199     323     328+EL   4C
+EL   4C     195     194                                                        
CHEXA        157       1      93      98     304     299      92      97+EL   4D
+EL   4D     329     324                                                        
CHEXA        158       1     299     304     305     300     324     329+EL   4E
+EL   4E     330     325                                                        
CHEXA        159       1     300     305     306     301     325     330+EL   4F
+EL   4F     331     326                                                        
CHEXA        160       1     301     306     307     302     326     331+EL   4G
+EL   4G     332     327                                                        
CHEXA        161       1     302     307     308     303     327     332+EL   4H
+EL   4H     333     328                                                        
CHEXA        162       1     303     308     201     200     328     333+EL   4I
+EL   4I     196     195                                                        
CHEXA        163       1      98     103     309     304      97     102+EL   4J
+EL   4J     334     329                                                        
CHEXA        164       1     304     309     310     305     329     334+EL   4K
+EL   4K     335     330                                                        
CHEXA        165       1     305     310     311     306     330     335+EL   4L
+EL   4L     336     331                                                        
CHEXA        166       1     306     311     312     307     331     336+EL   4M
+EL   4M     337     332                                                        
CHEXA        167       1     307     312     313     308     332     337+EL   4N
+EL   4N     338     333                                                        
CHEXA        168       1     308     313     202     201     333     338+EL   4O
+EL   4O     197     196                                                        
CHEXA        169       1     103     108     314     309     102     107+EL   4P
+EL   4P     339     334                                                        
CHEXA        170       1     309     314     315     310     334     339+EL   4Q
+EL   4Q     340     335                                                        
CHEXA        171       1     310     315     316     311     335     340+EL   4R
+EL   4R     341     336                                                        
CHEXA        172       1     311     316     317     312     336     341+EL   4S
+EL   4S     342     337                                                        
CHEXA        173       1     312     317     318     313     337     342+EL   4T
+EL   4T     343     338                                                        
CHEXA        174       1     313     318     203     202     338     343+EL   4U
+EL   4U     198     197                                                        
CHEXA        175       1     108      83     125     314     107     112+EL   4V
+EL   4V     124     339                                                        
CHEXA        176       1     314     125     130     315     339     124+EL   4W
+EL   4W     129     340                                                        
CHEXA        177       1     315     130     135     316     340     129+EL   4X
+EL   4X     134     341                                                        
CHEXA        178       1     316     135     140     317     341     134+EL   4Y
+EL   4Y     139     342                                                        
CHEXA        179       1     317     140     145     318     342     139+EL   4Z
+EL   4Z     144     343                                                        
CHEXA        180       1     318     145     188     203     343     144+EL   50
+EL   50     120     198                                                        
CHEXA        181       1      73      87     319      67      72      86+EL   51
+EL   51     185      44                                                        
CHEXA        182       1      67     319     320      62      44     185+EL   52
+EL   52     180     155                                                        
CHEXA        183       1      62     320     321      57     155     180+EL   53
+EL   53     175     154                                                        
CHEXA        184       1      57     321     322      52     154     175+EL   54
+EL   54     170      45                                                        
CHEXA        185       1      52     322     323      47      45     170+EL   55
+EL   55     165      46                                                        
CHEXA        186       1      47     323     194     193      46     165+EL   56
+EL   56     152     153                                                        
CHEXA        187       1      87      92     324     319      86     156+EL   57
+EL   57     184     185                                                        
CHEXA        188       1     319     324     325     320     185     184+EL   58
+EL   58     179     180                                                        
CHEXA        189       1     320     325     326     321     180     179+EL   59
+EL   59     174     175                                                        
CHEXA        190       1     321     326     327     322     175     174+EL   5A
+EL   5A     169     170                                                        
CHEXA        191       1     322     327     328     323     170     169+EL   5B
+EL   5B     164     165                                                        
CHEXA        192       1     323     328     195     194     165     164+EL   5C
+EL   5C     151     152                                                        
CHEXA        193       1      92      97     329     324     156      85+EL   5D
+EL   5D     183     184                                                        
CHEXA        194       1     324     329     330     325     184     183+EL   5E
+EL   5E     178     179                                                        
CHEXA        195       1     325     330     331     326     179     178+EL   5F
+EL   5F     173     174                                                        
CHEXA        196       1     326     331     332     327     174     173+EL   5G
+EL   5G     168     169                                                        
CHEXA        197       1     327     332     333     328     169     168+EL   5H
+EL   5H     163     164                                                        
CHEXA        198       1     328     333     196     195     164     163+EL   5I
+EL   5I     150     151                                                        
CHEXA        199       1      97     102     334     329      85     157+EL   5J
+EL   5J     182     183                                                        
CHEXA        200       1     329     334     335     330     183     182+EL   5K
+EL   5K     177     178                                                        
CHEXA        201       1     330     335     336     331     178     177+EL   5L
+EL   5L     172     173                                                        
CHEXA        202       1     331     336     337     332     173     172+EL   5M
+EL   5M     167     168                                                        
CHEXA        203       1     332     337     338     333     168     167+EL   5N
+EL   5N     162     163                                                        
CHEXA        204       1     333     338     197     196     163     162+EL   5O
+EL   5O     149     150                                                        
CHEXA        205       1     102     107     339     334     157     158+EL   5P
+EL   5P     181     182                                                        
CHEXA        206       1     334     339     340     335     182     181+EL   5Q
+EL   5Q     176     177                                                        
CHEXA        207       1     335     340     341     336     177     176+EL   5R
+EL   5R     171     172                                                        
CHEXA        208       1     336     341     342     337     172     171+EL   5S
+EL   5S     166     167                                                        
CHEXA        209       1     337     342     343     338     167     166+EL   5T
+EL   5T     161     162                                                        
CHEXA        210       1     338     343     198     197     162     161+EL   5U
+EL   5U     186     149                                                        
CHEXA        211       1     107     112     124     339     158      84+EL   5V
+EL   5V     123     181                                                        
CHEXA        212       1     339     124     129     340     181     123+EL   5W
+EL   5W     159     176                                                        
CHEXA        213       1     340     129     134     341     176     159+EL   5X
+EL   5X     160     171                                                        
CHEXA        214       1     341     134     139     342     171     160+EL   5Y
+EL   5Y     122     166                                                        
CHEXA        215       1     342     139     144     343     166     122+EL   5Z
+EL   5Z     121     161                                                        
CHEXA        216       1     343     144     120     198     161     121+EL   60
+EL   60     187     186                                                        
ENDDATA
