ID C:\Users\Dima\Lame3d2\Mpl,FEMAP
SOL SESTATICS
TIME 10000
CEND
  ECHO = NONE
  DISPLACEMENT(PLOT) = ALL
  SPCFORCE(PLOT) = ALL
  OLOAD(PLOT) = ALL
  FORCE(PLOT,CORNER) = ALL
  STRESS(PLOT,CORNER) = ALL
BEGIN BULK
$ ***************************************************************************
$   Written by : FEMAP
$   Version    : 7.00
$   Translator : MSC/NASTRAN
$   From Model : C:\Users\Dima\Lame3d2\Mpls_all\Exe\Box2d_homog\Solid\model.mod
$   Date       : Sun Sep 23 13:42:55 2007
$ ***************************************************************************
$
PARAM,POST,-1
PARAM,OGEOM,NO
PARAM,AUTOSPC,YES
PARAM,GRDPNT,0
CORD2C         1       0      0.      0.      0.      0.      0.      1.+FEMAPC1
+FEMAPC1      1.      0.      1.
CORD2S         2       0      0.      0.      0.      0.      0.      1.+FEMAPC2
+FEMAPC2      1.      0.      1.
$ FEMAP Load Set 111 : Inclusion BSOURCE 1. 0.4 0.8 0.2 0.
$ FEMAP Property 1 : Matrix
PSHELL         1       1      0.       1               1              0.
$ FEMAP Property 2 : Fulleren
PSHELL         2       1      0.       1               1              0.
$ FEMAP Material 1 : mat
MAT1           1                              0.      0.      0.        
GRID        1023       0      0.     0.8      0.       0        
GRID        1024       0      0. 0.78596      0.       0        
GRID        1025       0      0. 0.77193      0.       0        
GRID        1026       0      0. 0.75789      0.       0        
GRID        1027       0      0. 0.74386      0.       0        
GRID        1028       0      0. 0.72982      0.       0        
GRID        1029       0      0. 0.71579      0.       0        
GRID        1030       0      0. 0.70175      0.       0        
GRID        1031       0      0. 0.68772      0.       0        
GRID        1032       0      0. 0.67368      0.       0        
GRID        1033       0      0. 0.65965      0.       0        
GRID        1034       0      0. 0.64561      0.       0        
GRID        1035       0      0. 0.63158      0.       0        
GRID        1036       0      0. 0.61754      0.       0        
GRID        1037       0      0. 0.60351      0.       0        
GRID        1038       0      0. 0.58947      0.       0        
GRID        1039       0      0. 0.57544      0.       0        
GRID        1040       0      0.  0.5614      0.       0        
GRID        1041       0      0. 0.54737      0.       0        
GRID        1042       0      0. 0.53333      0.       0        
$ ... 9056 like lines cut
CQUAD4       831       1    1743    1744    1795    1796                
CQUAD4       832       1    1726    1727    1743    1796                
CQUAD4       833       1    1452    1453    1726    1796                
CQUAD4       834       1    1451    1452    1796    1795                
CQUAD4       835       1    1792    1793    1797    1799                
CQUAD4       836       1    1745    1746    1792    1799                
CQUAD4       837       1    1799    1797    1798    1800                
CQUAD4       838       1    1744    1745    1799    1800                
CQUAD4       839       1    1795    1744    1800    1798                
CQUAD4       840       1    1798    1797    1801    1802                
CQUAD4       841       1    1451    1795    1798    1802                
CQUAD4       842       1    7230    1451    1802    1801                
CQUAD4       843       1    1801    1797    1793    1794                
CQUAD4       844       1    1449    7230    1801    1794                
CQUAD4       845       1    1749    1750    1789    1806                
CQUAD4       846       1    1748    1749    1806    1807                
CQUAD4       847       1    1747    1748    1807    1808                
CQUAD4       848       1    1792    1746    1747    1808                
CQUAD4       849       1    1806    1789    1790    1803                
CQUAD4       850       1    1807    1806    1803    1804                
$ ... 23 like lines cut
CTRIA3       874       1    1441    1442    1816                        
CQUAD4       875       1    1812    1752    1753    1770                
CQUAD4       876       1    1770    1771    1830    1832                
CQUAD4       877       1    1832    1830    1831    1833                
CQUAD4       878       1    1812    1770    1832    1833                
CQUAD4       879       1    1813    1812    1833    1831                
CQUAD4       880       1    1830    1771    1772    1827                
CQUAD4       881       1    1827    1828    1834    1837                
CQUAD4       882       1    1837    1834    1835    1836                
CQUAD4       883       1    1830    1827    1837    1836                
CQUAD4       884       1    1831    1830    1836    1835                
CQUAD4       885       1    1835    1834    1838    1839                
CQUAD4       886       1    1813    1831    1835    1839                
CQUAD4       887       1    1814    1813    1839    1838                
CQUAD4       888       1    1838    1834    1828    1829                
CQUAD4       889       1    1815    1814    1838    1829                
CQUAD4       890       1    1827    1772    1773    1824                
CQUAD4       891       1    1828    1827    1824    1825                
CQUAD4       892       1    1829    1828    1825    1826                
CQUAD4       893       1    1816    1815    1829    1826                
CQUAD4       894       1    1824    1773    1774    1786                
$ ... 46 like lines cut
CTRIA3       941       1    1699    1423    7256                        
CQUAD4       942       1    1698    1699    1425    1785                
CQUAD4       943       1    1758    1759    1868    1890                
CQUAD4       944       1    1896    1897    1898    1899                
CQUAD4       945       1    1890    1891    1896    1899                
CQUAD4       946       1    1758    1890    1899    1898                
CQUAD4       947       1    1757    1758    1898    1897                
CQUAD4       948       1    1892    1893    1895    1900                
CQUAD4       949       1    1896    1891    1892    1900                
CQUAD4       950       1    1897    1896    1900    1901                
CQUAD4       951       1    1756    1757    1897    1901                
CQUAD4       952       1    1756    1901    1900    1895                
CQUAD4       953       1    1755    1756    1895    1902                
CQUAD4       954       1    1770    1753    1754    1903                
CQUAD4       955       1    1903    1754    1755    1902                
CQUAD4       956       1    1771    1770    1903    1902                
CQUAD4       957       1    1902    1895    1893    1894                
CQUAD4       958       1    1772    1771    1902    1894                
CQUAD4       959       1    1869    1870    1885    1906                
CQUAD4       960       1    1890    1868    1869    1906                
CQUAD4       961       1    1906    1885    1886    1905                
$ ... 2434 like lines cut
CTRIA3      3396       1    7133    7132    4150                        
CQUAD4      3397       1    4147    4148    4151    4153                
CQUAD4      3398       1    4060    4061    4147    4153                
CQUAD4      3399       1    4153    4151    4152    4154                
CQUAD4      3400       1    4059    4060    4153    4154                
CQUAD4      3401       1    4150    4059    4154    4152                
CQUAD4      3402       1    4152    4151    4155    4156                
CQUAD4      3403       1    7133    4150    4152    4156                
CQUAD4      3404       1    7134    7133    4156    4155                
CQUAD4      3405       1    4155    4151    4148    4149                
CQUAD4      3406       1    7135    7134    4155    4149                
CQUAD4      3407       1    4142    4143    4157    4159                
CQUAD4      3408       1    4142    4159    4160    4161                
CQUAD4      3409       1    4062    4063    4142    4161                
CQUAD4      3410       1    4147    4061    4062    4161                
CQUAD4      3411       1    4148    4147    4161    4160                
CQUAD4      3412       1    4149    4148    4160    4163                
CQUAD4      3413       1    7136    7135    4149    4163                
CQUAD4      3414       1    4163    4160    4159    4162                
CQUAD4      3415       1    1543    7136    4163    4162                
CQUAD4      3416       1    4162    4159    4157    4158                
$ ... 2490 like lines cut
CTRIA3      5907       1    1555    7382    6500                        
CQUAD4      5908       1    1555    6500    6363    6364                
CQUAD4      5909       1    7384    1555    6364    6365                
CQUAD4      5910       1    7385    7384    6365    6366                
CQUAD4      5911       1    1700    7128    7385    6366                
CQUAD4      5912       1    6518    6519    6527    6529                
CQUAD4      5913       1    6502    6503    6518    6529                
CQUAD4      5914       1    6529    6527    6528    6530                
CQUAD4      5915       1    6501    6502    6529    6530                
CQUAD4      5916       1    6361    6360    6501    6530                
CQUAD4      5917       1    6362    6361    6530    6528                
CQUAD4      5918       1    6519    6520    6523    6532                
CQUAD4      5919       1    6532    6523    6524    6531                
CQUAD4      5920       1    6527    6519    6532    6531                
CQUAD4      5921       1    6531    6524    6525    6533                
CQUAD4      5922       1    6528    6527    6531    6533                
CQUAD4      5923       1    6533    6525    6526    6534                
CQUAD4      5924       1    6362    6528    6533    6534                
CQUAD4      5925       1    6363    6362    6534    6526                
CQUAD4      5926       1    6526    6525    6535    6539                
CQUAD4      5927       1    6364    6363    6526    6539                
$ ... 679 like lines cut
CTRIA3      6607       1    1442    7237    1816                        
CTRIA3      6608       1    1699    7256    1425                        
CTRIA3      6609       1    7132    7131    4150                        
CTRIA3      6610       1    7382    7381    6500                        
CQUAD4      6611       1    8345    7390    7649    7656                
CQUAD4      6612       1    7388    8345    7656    7657                
CTRIA3      6613       1    7636    8348    7387                        
CQUAD4      6614       1    7635    7636    7388    7657                
CQUAD4      6615       1    7656    7649    7650    7654                
CQUAD4      6616       1    7657    7656    7654    7655                
CQUAD4      6617       1    7634    7635    7657    7655                
CQUAD4      6618       1    7655    7654    7658    7661                
CQUAD4      6619       1    7633    7634    7655    7661                
CQUAD4      6620       1    7661    7658    7659    7662                
CQUAD4      6621       1    7632    7633    7661    7662                
CQUAD4      6622       1    7662    7659    7660    7663                
CQUAD4      6623       1    7253    7632    7662    7663                
CQUAD4      6624       1    1428    7253    7663    7660                
CQUAD4      6625       1    7658    7654    7650    7651                
CQUAD4      6626       1    7659    7658    7651    7652                
CQUAD4      6627       1    7660    7659    7652    7653                
CQUAD4      6628       1    1429    1428    7660    7653                
CQUAD4      6629       1    7646    7647    7664    7669                
CQUAD4      6630       1    7392    8341    7646    7669                
CQUAD4      6631       1    7665    7666    7667    7670                
CQUAD4      6632       1    7669    7664    7665    7670                
CQUAD4      6633       1    7669    7670    7667    7668                
$ ... 150 like lines cut
CTRIA3      6784       1    7437    7438    7767                        
CQUAD4      6785       1    7754    7436    7437    7766                
CQUAD4      6786       1    7755    7754    7766    7765                
CQUAD4      6787       1    7765    7764    7768    7769                
CQUAD4      6788       1    7204    7755    7765    7769                
CTRIA3      6789       1    7203    7204    7769                        
CQUAD4      6790       1    7768    7764    7762    7763                
CQUAD4      6791       1    1478    7203    7768    7763                
CQUAD4      6792       1    7762    7438    7439    7770                
CQUAD4      6793       1    7763    7762    7770    7771                
CQUAD4      6794       1    7201    1478    7763    7771                
CQUAD4      6795       1    7201    7771    7770    7439                
CQUAD4      6796       1    7200    7201    7439    7440                
CQUAD4      6797       1    7199    7200    7440    8293                
CQUAD4      6798       1    1482    7199    8293    8292                
CQUAD4      6799       1    1483    1482    8292    7443                
CQUAD4      6800       1    1484    1483    7443    8290                
CQUAD4      6801       1    1485    1484    8290    8289                
CQUAD4      6802       1    1486    1485    8289    7446                
CQUAD4      6803       1    7193    1486    7446    8287                
CQUAD4      6804       1    1488    7193    8287    8286                
CQUAD4      6805       1    1489    1488    8286    7449                
CQUAD4      6806       1    1490    1489    7449    8284                
CQUAD4      6807       1    1491    1490    8284    7451                
CQUAD4      6808       1    7188    1491    7451    7452                
CQUAD4      6809       1    7187    7188    7452    7453                
$ ... 10 like lines cut
CTRIA3      6820       1    8277    8276    7787                        
CQUAD4      6821       1    7776    8277    7787    7785                
CQUAD4      6822       1    7777    7776    7785    7788                
CQUAD4      6823       1    7182    1497    7777    7788                
CQUAD4      6824       1    7788    7785    7784    7789                
CTRIA3      6825       1    1499    7182    7789                        
CQUAD4      6826       1    1499    7789    7784    7783                
CQUAD4      6827       1    7780    7781    7790    7792                
CQUAD4      6828       1    8274    7461    7780    7792                
CQUAD4      6829       1    7792    7790    7791    7793                
CTRIA3      6830       1    7459    8274    7793                        
CQUAD4      6831       1    7782    7459    7793    7791                
CQUAD4      6832       1    7783    7782    7791    7794                
CQUAD4      6833       1    1500    1499    7783    7794                
CQUAD4      6834       1    7794    7791    7790    7795                
CTRIA3      6835       1    7179    1500    7795                        
CQUAD4      6836       1    7179    7795    7790    7781                
CQUAD4      6837       1    7774    7775    7796    7800                
CQUAD4      6838       1    8270    8269    7774    7800                
CQUAD4      6839       1    7800    7796    7797    7799                
CQUAD4      6840       1    8271    8270    7800    7799                
CQUAD4      6841       1    7799    7797    7798    7801                
CQUAD4      6842       1    8272    8271    7799    7801                
CQUAD4      6843       1    7780    7461    8272    7801                
CQUAD4      6844       1    7781    7780    7801    7798                
CQUAD4      6845       1    1502    7179    7781    7798                
CQUAD4      6846       1    1503    1502    7798    7797                
CQUAD4      6847       1    1504    1503    7797    7796                
CQUAD4      6848       1    7175    1504    7796    7775                
CQUAD4      6849       1    8266    8265    7804    7806                
CQUAD4      6850       1    7467    8266    7806    7807                
CQUAD4      6851       1    7466    7467    7807    7808                
CQUAD4      6852       1    7774    8269    7466    7808                
CQUAD4      6853       1    7806    7804    7805    7809                
CQUAD4      6854       1    7807    7806    7809    7810                
CQUAD4      6855       1    7808    7807    7810    7811                
$ ... 368 like lines cut
CTRIA3      7224       1    7308    1629    8077                        
CQUAD4      7225       1    8064    7308    8077    8075                
CQUAD4      7226       1    8065    8064    8075    8078                
CQUAD4      7227       1    8397    7584    8065    8078                
CQUAD4      7228       1    8078    8075    8074    8079                
CTRIA3      7229       1    7582    8397    8079                        
CQUAD4      7230       1    7582    8079    8074    8073                
CQUAD4      7231       1    8062    8063    8080    8082                
CQUAD4      7232       1    1627    1626    8062    8082                
CQUAD4      7233       1    8082    8080    8081    8083                
CTRIA3      7234       1    1628    1627    8083                        
CQUAD4      7235       1    8072    1628    8083    8081                
CQUAD4      7236       1    8073    8072    8081    8084                
CQUAD4      7237       1    7581    7582    8073    8084                
CQUAD4      7238       1    8084    8081    8080    8085                
CTRIA3      7239       1    8400    7581    8085                        
CQUAD4      7240       1    8400    8085    8080    8063                
CQUAD4      7241       1    8401    8400    8063    8086                
CQUAD4      7242       1    8062    1626    1625    8087                
CQUAD4      7243       1    8086    8063    8062    8087                
CQUAD4      7244       1    8401    8086    8087    1625                
CQUAD4      7245       1    8402    8401    1625    1624                
CQUAD4      7246       1    7577    8402    1624    1623                
CQUAD4      7247       1    7576    7577    1623    7316                
CQUAD4      7248       1    8405    7576    7316    7317                
CQUAD4      7249       1    7574    8405    7317    7318                
CQUAD4      7250       1    7573    7574    7318    7319                
CQUAD4      7251       1    8408    7573    7319    1618                
CQUAD4      7252       1    8409    8408    1618    7321                
CQUAD4      7253       1    8410    8409    7321    7322                
CQUAD4      7254       1    7569    8410    7322    7323                
CQUAD4      7255       1    7568    7569    7323    1614                
CQUAD4      7256       1    7567    7568    1614    1613                
CQUAD4      7257       1    8414    7567    1613    7326                
CQUAD4      7258       1    7565    8414    7326    7327                
CQUAD4      7259       1    7564    7565    7327    1610                
$ ... 9 like lines cut
CTRIA3      7269       1    1605    1604    8101                        
CQUAD4      7270       1    8094    1606    1605    8100                
CQUAD4      7271       1    8095    8094    8100    8099                
CQUAD4      7272       1    8099    8098    8102    8103                
CQUAD4      7273       1    7560    8095    8099    8103                
CTRIA3      7274       1    7559    7560    8103                        
CQUAD4      7275       1    8102    8098    8092    8093                
CQUAD4      7276       1    8422    7559    8102    8093                
CQUAD4      7277       1    1601    1600    8090    8104                
CQUAD4      7278       1    1602    1601    8104    8105                
CQUAD4      7279       1    7335    1602    8105    8106                
CQUAD4      7280       1    8092    1604    7335    8106                
CQUAD4      7281       1    8093    8092    8106    8108                
CQUAD4      7282       1    8423    8422    8093    8108                
CQUAD4      7283       1    8108    8106    8105    8107                
CQUAD4      7284       1    7556    8423    8108    8107                
CQUAD4      7285       1    8107    8105    8104    8109                
CQUAD4      7286       1    7555    7556    8107    8109                
CQUAD4      7287       1    8109    8104    8090    8091                
CQUAD4      7288       1    8426    7555    8109    8091                
CQUAD4      7289       1    1597    1596    8112    8117                
CQUAD4      7290       1    7340    1597    8117    8118                
CQUAD4      7291       1    7339    7340    8118    8119                
CQUAD4      7292       1    8090    1600    7339    8119                
CQUAD4      7293       1    8117    8112    8113    8114                
CQUAD4      7294       1    8118    8117    8114    8115                
$ ... 161 like lines cut
CTRIA3      7456       1    7636    7387    7388                        
CTRIA3      7457       1    7437    7767    7766                        
CTRIA3      7458       1    7203    7769    7768                        
CTRIA3      7459       1    8276    7786    7787                        
CTRIA3      7460       1    7182    7788    7789                        
CTRIA3      7461       1    8274    7792    7793                        
CTRIA3      7462       1    1500    7794    7795                        
CTRIA3      7463       1    1629    8076    8077                        
CTRIA3      7464       1    8397    8078    8079                        
CTRIA3      7465       1    1627    8082    8083                        
CTRIA3      7466       1    7581    8084    8085                        
CTRIA3      7467       1    1605    8101    8100                        
CTRIA3      7468       1    7559    8103    8102                        
CQUAD4      7469       2    8559    8560    8563    8565                
CQUAD4      7470       2    8558    8559    8565    8566                
CQUAD4      7471       2    8553    8554    8558    8566                
CQUAD4      7472       2    8565    8563    8564    8567                
CQUAD4      7473       2    8566    8565    8567    8568                
CQUAD4      7474       2    8552    8553    8566    8568                
CQUAD4      7475       2    8547    8548    8552    8568                
CQUAD4      7476       2    8546    8547    8568    8567                
CQUAD4      7477       2    8545    8546    8567    8564                
CQUAD4      7478       2    8563    8560    8561    8569                
CQUAD4      7479       2    8564    8563    8569    8570                
CQUAD4      7480       2    8544    8545    8564    8570                
CQUAD4      7481       2    8569    8561    8562    8571                
CQUAD4      7482       2    8570    8569    8571    8572                
CQUAD4      7483       2    8543    8544    8570    8572                
CQUAD4      7484       2    8532    8533    8543    8572                
CQUAD4      7485       2    8531    8532    8572    8571                
CQUAD4      7486       2    8530    8531    8571    8562                
CQUAD4      7487       2    8576    8577    8578    8580                
CQUAD4      7488       2    8573    8574    8576    8580                
$ ... 69 like lines cut
CTRIA3      7558       2    7619    7618    8551                        
CQUAD4      7559       2    7619    8551    8550    8633                
CQUAD4      7560       2    8626    8624    8625    8634                
CQUAD4      7561       2    8633    8627    8626    8634                
CQUAD4      7562       2    8360    7619    8633    8634                
CQUAD4      7563       2    8359    8360    8634    8625                
CQUAD4      7564       2    8616    8617    8635    8640                
CQUAD4      7565       2    8622    8615    8616    8640                
CQUAD4      7566       2    8640    8635    8636    8639                
CQUAD4      7567       2    8623    8622    8640    8639                
CQUAD4      7568       2    8639    8636    8637    8641                
CQUAD4      7569       2    8624    8623    8639    8641                
CQUAD4      7570       2    8641    8637    8638    8642                
CQUAD4      7571       2    8625    8624    8641    8642                
CQUAD4      7572       2    7622    8359    8625    8642                
CQUAD4      7573       2    8357    7622    8642    8638                
CQUAD4      7574       2    8635    8617    8618    8643                
CQUAD4      7575       2    8636    8635    8643    8644                
CQUAD4      7576       2    8644    8645    8646    8648                
CQUAD4      7577       2    8636    8644    8648    8649                
CQUAD4      7578       2    8649    8648    8646    8647                
$ ... 44 like lines cut
CTRIA3      7623       2    8348    8349    8675                        
CQUAD4      7624       2    8674    8670    8540    8541                
CQUAD4      7625       2    8675    8674    8541    8542                
CQUAD4      7626       2    7387    8348    8675    8542                
CQUAD4      7627       2    8697    8698    8703    8706                
CQUAD4      7628       2    8687    8688    8697    8706                
CQUAD4      7629       2    8687    8706    8703    8704                
CQUAD4      7630       2    8686    8687    8704    8705                
CQUAD4      7631       2    8678    8679    8686    8705                
CQUAD4      7632       2    8703    8698    8699    8700                
CQUAD4      7633       2    8704    8703    8700    8701                
CQUAD4      7634       2    8705    8704    8701    8702                
CQUAD4      7635       2    8677    8678    8705    8702                
CQUAD4      7636       2    8533    8532    8677    8702                
CQUAD4      7637       2    8534    8533    8702    8701                
CQUAD4      7638       2    8535    8534    8701    8700                
CQUAD4      7639       2    8536    8535    8700    8699                
CQUAD4      7640       2    8689    8690    8694    8708                
CQUAD4      7641       2    8697    8688    8689    8708                
CQUAD4      7642       2    8708    8694    8695    8707                
CQUAD4      7643       2    8698    8697    8708    8707                
$ ... 73 like lines cut
CTRIA3      7717       2    8332    8333    8685                        
CQUAD4      7718       2    8760    8761    8772    8778                
CQUAD4      7719       2    8521    8522    8760    8778                
CQUAD4      7720       2    8778    8772    8773    8777                
CQUAD4      7721       2    8520    8521    8778    8777                
CQUAD4      7722       2    8777    8773    8774    8776                
CQUAD4      7723       2    8519    8520    8777    8776                
CQUAD4      7724       2    8518    8519    8776    8779                
CQUAD4      7725       2    8527    8517    8518    8779                
CQUAD4      7726       2    8779    8776    8774    8775                
CQUAD4      7727       2    8528    8527    8779    8775                
CQUAD4      7728       2    8763    8764    8767    8782                
CQUAD4      7729       2    8762    8763    8782    8783                
CQUAD4      7730       2    8772    8761    8762    8783                
CQUAD4      7731       2    8782    8767    8768    8780                
CQUAD4      7732       2    8783    8782    8780    8781                
CQUAD4      7733       2    8773    8772    8783    8781                
CQUAD4      7734       2    8774    8773    8781    8784                
CQUAD4      7735       2    8775    8774    8784    8785                
CQUAD4      7736       2    8529    8528    8775    8785                
CQUAD4      7737       2    8780    8768    8769    8786                
$ ... 1748 like lines cut
CTRIA3      9486       2    7495    8240   10337                        
CQUAD4      9487       2    7495   10337   10336   10415                
CQUAD4      9488       2   10407   10405   10406   10416                
CQUAD4      9489       2   10415   10408   10407   10416                
CQUAD4      9490       2    8238    7495   10415   10416                
CQUAD4      9491       2    7497    8238   10416   10406                
CQUAD4      9492       2   10397   10398   10417   10423                
CQUAD4      9493       2   10403   10396   10397   10423                
CQUAD4      9494       2   10423   10417   10418   10422                
CQUAD4      9495       2   10404   10403   10423   10422                
CQUAD4      9496       2   10422   10418   10419   10421                
CQUAD4      9497       2   10405   10404   10422   10421                
CQUAD4      9498       2   10421   10419   10420   10424                
CQUAD4      9499       2   10406   10405   10421   10424                
CQUAD4      9500       2    7498    7497   10406   10424                
CQUAD4      9501       2    8235    7498   10424   10420                
CQUAD4      9502       2   10417   10398   10399   10425                
CQUAD4      9503       2   10418   10417   10425   10426                
CQUAD4      9504       2   10426   10427   10428   10430                
CQUAD4      9505       2   10418   10426   10430   10431                
CQUAD4      9506       2   10431   10430   10428   10429                
$ ... 174 like lines cut
CTRIA3      9681       2   10469    8456    8457                        
CQUAD4      9682       2   10470   10469    8458   10579                
CQUAD4      9683       2   10471   10470   10579   10578                
CQUAD4      9684       2   10548   10546   10547   10581                
CQUAD4      9685       2   10582   10583   10584   10585                
CQUAD4      9686       2   10548   10581   10582   10585                
CQUAD4      9687       2   10549   10548   10585   10584                
CQUAD4      9688       2   10577   10550   10549   10584                
CQUAD4      9689       2   10578   10577   10584   10583                
CQUAD4      9690       2   10472   10471   10578   10583                
CQUAD4      9691       2   10473   10472   10583   10582                
CQUAD4      9692       2   10474   10473   10582   10581                
CQUAD4      9693       2   10475   10474   10581   10547                
CQUAD4      9694       2   10547   10546   10588   10590                
CQUAD4      9695       2   10476   10475   10547   10590                
CQUAD4      9696       2   10590   10588   10589   10591                
CQUAD4      9697       2   10477   10476   10590   10591                
CQUAD4      9698       2   10320   10319   10477   10591                
CQUAD4      9699       2   10321   10320   10591   10589                
CQUAD4      9700       2   10544   10543   10586   10592                
CQUAD4      9701       2   10545   10544   10592   10593                
$ ... 20 like lines cut
CTRIA3      9722       2    8225   10601    8470                        
CTRIA3      9723       2    7618    7617    8551                        
CTRIA3      9724       2    8349    7630    8675                        
CTRIA3      9725       2    8333    8334    8685                        
CTRIA3      9726       2    8240    8241   10337                        
CTRIA3      9727       2   10469    8457    8458                        
CTRIA3      9728       2   10601    7511    8470                        
ENDDATA
