ID C:\Users\Dima\Lame3d2\Mpl,FEMAP
SOL SESTATICS
TIME 10000
CEND
  ECHO = NONE
  DISPLACEMENT(PLOT) = ALL
  SPCFORCE(PLOT) = ALL
  OLOAD(PLOT) = ALL
  FORCE(PLOT,CORNER) = ALL
  STRESS(PLOT,CORNER) = ALL
BEGIN BULK
$ ***************************************************************************
$   Written by : FEMAP
$   Version    : 7.00
$   Translator : MSC/NASTRAN
$   From Model : C:\Users\Dima\Lame3d2\Mpls_all\Exe\Box2d_homog\Solid\model.mod
$   Date       : Sun Jun 17 15:03:13 2007
$ ***************************************************************************
$
PARAM,POST,-1
PARAM,OGEOM,NO
PARAM,AUTOSPC,YES
PARAM,GRDPNT,0
CORD2C         1       0      0.      0.      0.      0.      0.      1.+FEMAPC1
+FEMAPC1      1.      0.      1.
CORD2S         2       0      0.      0.      0.      0.      0.      1.+FEMAPC2
+FEMAPC2      1.      0.      1.
$ FEMAP Load Set 111 : Inclusion BSOURCE 0.544 0.544 0.344 0.344 0.
$ FEMAP Property 1 : Matrix
PSHELL         1       1      0.       1               1              0.
$ FEMAP Property 2 : Fulleren
PSHELL         2       1      0.       1               1              0.
$ FEMAP Material 1 : mat
MAT1           1                              0.      0.      0.        
GRID         497       0      0.   1.088      0.       0        
GRID         498       0      0. 1.01029      0.       0        
GRID         499       0      0. 0.93257      0.       0        
GRID         500       0      0. 0.85486      0.       0        
GRID         501       0      0. 0.77714      0.       0        
GRID         502       0      0. 0.69943      0.       0        
GRID         503       0      0. 0.62171      0.       0        
GRID         506       0 0.13333   0.544      0.       0        
GRID         515       0   0.544 0.95467      0.       0        
GRID         516       0   0.544 1.02133      0.       0        
GRID         517       0   0.544   1.088      0.       0        
GRID         518       0 0.46629   1.088      0.       0        
GRID         519       0 0.38857   1.088      0.       0        
GRID         520       0 0.31086   1.088      0.       0        
GRID         521       0 0.23314   1.088      0.       0        
GRID         522       0 0.15543   1.088      0.       0        
GRID         523       00.077714   1.088      0.       0        
GRID         524       0 0.14291 0.62363      0.       0        
GRID         525       00.071461 0.62267      0.       0        
GRID         526       0  0.1576 1.01103      0.       0        
$ ... 221 like lines cut
CQUAD4       405       1     506     552     566     524                
CQUAD4       406       1     657     506     524     525                
CQUAD4       407       1     503     656     657     525                
CQUAD4       408       1     526     527     531     536                
CQUAD4       409       1     521     522     526     536                
CQUAD4       410       1     536     531     532     535                
CQUAD4       411       1     520     521     536     535                
CQUAD4       412       1     519     520     535     537                
CQUAD4       413       1     518     519     537     538                
CQUAD4       414       1     516     517     518     538                
CQUAD4       415       1     537     535     532     533                
CQUAD4       416       1     538     537     533     534                
CQUAD4       417       1     515     516     538     534                
CQUAD4       418       1     561     636     515     534                
CQUAD4       419       1     562     561     534     533                
CQUAD4       420       1     562     533     532     539                
CTRIA3       421       1     563     562     539                        
CQUAD4       422       1     540     541     542     544                
CQUAD4       423       1     528     529     540     544                
CQUAD4       424       1     528     544     542     543                
CQUAD4       425       1     531     527     528     543                
CQUAD4       426       1     539     532     531     543                
CQUAD4       427       1     563     539     543     542                
CQUAD4       428       1     564     563     542     541                
CQUAD4       429       1     565     564     541     545                
CQUAD4       430       1     540     529     530     546                
CQUAD4       431       1     545     541     540     546                
CQUAD4       432       1     565     545     546     530                
CQUAD4       433       1     524     566     565     530                
CQUAD4       434       1     529     528     547     548                
CQUAD4       435       1     530     529     548     549                
CQUAD4       436       1     525     524     530     549                
CQUAD4       437       1     502     503     525     549                
CQUAD4       438       1     501     502     549     548                
CQUAD4       439       1     500     501     548     547                
CQUAD4       440       1     526     522     523     550                
CQUAD4       441       1     527     526     550     551                
$ ... 8 like lines cut
CTRIA3       450       2     565     566     570                        
CQUAD4       451       2     565     570     571     572                
CTRIA3       452       2     563     564     572                        
CTRIA3       453       2     567     561     562                        
CQUAD4       454       2     568     567     563     572                
CQUAD4       455       2     569     568     572     571                
CQUAD4       456       2     554     555     569     571                
CQUAD4       457       2     705     554     571     570                
CQUAD4       458       2     552     705     570     566                
CTRIA3       459       2     564     565     572                        
CTRIA3       460       2     567     562     563                        
CQUAD4       461       1     780     582     600     584                
CQUAD4       462       1     582     581     601     600                
CQUAD4       463       1     732     579     601     581                
CQUAD4       464       1     603     602     612     607                
CQUAD4       465       1     598     597     612     602                
CQUAD4       466       1     607     612     611     608                
CQUAD4       467       1     597     596     611     612                
CQUAD4       468       1     596     595     613     611                
CQUAD4       469       1     595     594     614     613                
CQUAD4       470       1     517     516     614     594                
CQUAD4       471       1     611     613     609     608                
CQUAD4       472       1     613     614     610     609                
CQUAD4       473       1     516     515     610     614                
CQUAD4       474       1     636     589     610     515                
CQUAD4       475       1     589     638     609     610                
CQUAD4       476       1     609     638     615     608                
CTRIA3       477       1     638     587     615                        
CQUAD4       478       1     617     616     620     618                
CQUAD4       479       1     605     604     620     616                
CQUAD4       480       1     620     604     619     618                
CQUAD4       481       1     603     607     619     604                
CQUAD4       482       1     608     615     619     607                
CQUAD4       483       1     615     587     618     619                
CQUAD4       484       1     587     640     617     618                
CQUAD4       485       1     640     641     621     617                
CQUAD4       486       1     605     616     622     606                
CQUAD4       487       1     617     621     622     616                
CQUAD4       488       1     621     641     606     622                
CQUAD4       489       1     584     600     606     641                
CQUAD4       490       1     604     605     624     623                
CQUAD4       491       1     605     606     625     624                
CQUAD4       492       1     600     601     625     606                
CQUAD4       493       1     579     578     625     601                
CQUAD4       494       1     578     577     624     625                
CQUAD4       495       1     577     576     623     624                
CQUAD4       496       1     598     602     626     599                
CQUAD4       497       1     602     603     627     626                
$ ... 8 like lines cut
CTRIA3       506       2     584     641     646                        
CQUAD4       507       2     646     641     648     647                
CTRIA3       508       2     640     587     648                        
CTRIA3       509       2     589     643     638                        
CQUAD4       510       2     643     644     648     587                
CQUAD4       511       2     644     645     647     648                
CQUAD4       512       2     783     782     647     645                
CQUAD4       513       2     782     781     646     647                
CQUAD4       514       2     781     780     584     646                
CTRIA3       515       2     641     640     648                        
CTRIA3       516       2     638     643     587                        
CQUAD4       517       1     552     506     676     718                
CQUAD4       518       1     506     657     677     676                
CQUAD4       519       1     656     655     677     657                
CQUAD4       520       1     679     678     688     683                
CQUAD4       521       1     674     673     688     678                
CQUAD4       522       1     683     688     687     684                
CQUAD4       523       1     673     672     687     688                
CQUAD4       524       1     672     671     689     687                
CQUAD4       525       1     671     670     690     689                
CQUAD4       526       1     745     744     690     670                
CQUAD4       527       1     687     689     685     684                
CQUAD4       528       1     689     690     686     685                
CQUAD4       529       1     744     743     686     690                
CQUAD4       530       1     712     713     686     743                
CQUAD4       531       1     713     664     685     686                
CQUAD4       532       1     685     664     691     684                
CTRIA3       533       1     664     663     691                        
CQUAD4       534       1     693     692     696     694                
CQUAD4       535       1     681     680     696     692                
CQUAD4       536       1     696     680     695     694                
CQUAD4       537       1     679     683     695     680                
CQUAD4       538       1     684     691     695     683                
CQUAD4       539       1     691     663     694     695                
CQUAD4       540       1     663     662     693     694                
CQUAD4       541       1     662     717     697     693                
CQUAD4       542       1     681     692     698     682                
CQUAD4       543       1     693     697     698     692                
CQUAD4       544       1     697     717     682     698                
CQUAD4       545       1     718     676     682     717                
CQUAD4       546       1     680     681     700     699                
CQUAD4       547       1     681     682     701     700                
CQUAD4       548       1     676     677     701     682                
CQUAD4       549       1     655     654     701     677                
CQUAD4       550       1     654     653     700     701                
CQUAD4       551       1     653     652     699     700                
CQUAD4       552       1     674     678     702     675                
CQUAD4       553       1     678     679     703     702                
$ ... 8 like lines cut
CTRIA3       562       2     718     717     722                        
CQUAD4       563       2     722     717     724     723                
CTRIA3       564       2     662     663     724                        
CTRIA3       565       2     713     719     664                        
CQUAD4       566       2     719     720     724     663                
CQUAD4       567       2     720     721     723     724                
CQUAD4       568       2     555     554     723     721                
CQUAD4       569       2     554     705     722     723                
CQUAD4       570       2     705     552     718     722                
CTRIA3       571       2     717     662     724                        
CTRIA3       572       2     664     719     663                        
CQUAD4       573       1     582     780     794     752                
CQUAD4       574       1     581     582     752     753                
CQUAD4       575       1     731     732     581     753                
CQUAD4       576       1     754     755     759     764                
CQUAD4       577       1     749     750     754     764                
CQUAD4       578       1     764     759     760     763                
CQUAD4       579       1     748     749     764     763                
CQUAD4       580       1     747     748     763     765                
CQUAD4       581       1     746     747     765     766                
CQUAD4       582       1     744     745     746     766                
CQUAD4       583       1     765     763     760     761                
CQUAD4       584       1     766     765     761     762                
CQUAD4       585       1     743     744     766     762                
CQUAD4       586       1     741     712     743     762                
CQUAD4       587       1     740     741     762     761                
CQUAD4       588       1     740     761     760     767                
CTRIA3       589       1     791     740     767                        
CQUAD4       590       1     768     769     770     772                
CQUAD4       591       1     756     757     768     772                
CQUAD4       592       1     756     772     770     771                
CQUAD4       593       1     759     755     756     771                
CQUAD4       594       1     767     760     759     771                
CQUAD4       595       1     791     767     771     770                
CQUAD4       596       1     792     791     770     769                
CQUAD4       597       1     793     792     769     773                
CQUAD4       598       1     768     757     758     774                
CQUAD4       599       1     773     769     768     774                
CQUAD4       600       1     793     773     774     758                
CQUAD4       601       1     752     794     793     758                
CQUAD4       602       1     757     756     775     776                
CQUAD4       603       1     758     757     776     777                
CQUAD4       604       1     753     752     758     777                
CQUAD4       605       1     730     731     753     777                
CQUAD4       606       1     729     730     777     776                
CQUAD4       607       1     728     729     776     775                
CQUAD4       608       1     754     750     751     778                
CQUAD4       609       1     755     754     778     779                
$ ... 8 like lines cut
CTRIA3       618       2     793     794     798                        
CQUAD4       619       2     793     798     799     800                
CTRIA3       620       2     791     792     800                        
CTRIA3       621       2     795     741     740                        
CQUAD4       622       2     796     795     791     800                
CQUAD4       623       2     797     796     800     799                
CQUAD4       624       2     782     783     797     799                
CQUAD4       625       2     781     782     799     798                
CQUAD4       626       2     780     781     798     794                
CTRIA3       627       2     792     793     800                        
CTRIA3       628       2     795     740     791                        
ENDDATA
