ID C:\Users\Dima\Lame3d2\Mpl,FEMAP
SOL SESTATICS
TIME 10000
CEND
  ECHO = NONE
  DISPLACEMENT(PLOT) = ALL
  SPCFORCE(PLOT) = ALL
  OLOAD(PLOT) = ALL
  FORCE(PLOT,CORNER) = ALL
  STRESS(PLOT,CORNER) = ALL
BEGIN BULK
$ ***************************************************************************
$   Written by : FEMAP
$   Version    : 7.00
$   Translator : MSC/NASTRAN
$   From Model : C:\Users\Dima\Lame3d2\Mpls_all\Exe\Box2d_homog\Solid\model.mod
$   Date       : Sun Jun 17 13:52:54 2007
$ ***************************************************************************
$
PARAM,POST,-1
PARAM,OGEOM,NO
PARAM,AUTOSPC,YES
PARAM,GRDPNT,0
CORD2C         1       0      0.      0.      0.      0.      0.      1.+FEMAPC1
+FEMAPC1      1.      0.      1.
CORD2S         2       0      0.      0.      0.      0.      0.      1.+FEMAPC2
+FEMAPC2      1.      0.      1.
$ FEMAP Load Set 111 : Inclusion BSOURCE 1. 0.4 0.8 0.2 0.
$ FEMAP Property 1 : Matrix
PSHELL         1       1      0.       1               1              0.
$ FEMAP Property 2 : Fulleren
PSHELL         2       1      0.       1               1              0.
$ FEMAP Material 1 : mat
MAT1           1                              0.      0.      0.        
GRID           1       0      0.      0.      0.       0        
GRID           2       0     0.1      0.      0.       0        
GRID           3       0     0.2      0.      0.       0        
GRID           4       0     0.3      0.      0.       0        
GRID           5       0     0.4      0.      0.       0        
GRID           6       0     0.5      0.      0.       0        
GRID           7       0     0.6      0.      0.       0        
GRID           8       0     0.7      0.      0.       0        
GRID           9       0     0.8      0.      0.       0        
GRID          10       0     0.9      0.      0.       0        
GRID          15       0 0.72638 0.21206      0.       0        
GRID          16       0     0.6 0.22679      0.       0        
GRID          22       0     0.2     0.4      0.       0        
GRID          23       0 0.21215 0.43473      0.       0        
GRID          24       0 0.24825  0.4684      0.       0        
GRID          25       0 0.30718     0.5      0.       0        
GRID          26       0 0.38716 0.52856      0.       0        
GRID          27       0 0.48577 0.55321      0.       0        
GRID          34       0     0.9     0.8      0.       0        
GRID          35       0     0.8     0.8      0.       0        
$ ... 233 like lines cut
CQUAD4         1       1      35      36      58      60                
CQUAD4         2       1      34      35      60      61                
CQUAD4         3       1     171     172      34      61                
CQUAD4         4       1     110     109     171      61                
CQUAD4         5       1     110      61      60      62                
CQUAD4         6       1      62      60      58      59                
CQUAD4         7       1     111     110      62      59                
CQUAD4         8       1      58      36      37      56                
CQUAD4         9       1      59      58      56      57                
CQUAD4        10       1     112     111      59      57                
CQUAD4        11       1      56      37      38      63                
CQUAD4        12       1      57      56      63      64                
CQUAD4        13       1      27     112      57      64                
CQUAD4        14       1      39      40      53      65                
CQUAD4        15       1      63      38      39      65                
CQUAD4        16       1      65      53      54      66                
CQUAD4        17       1      64      63      65      66                
CQUAD4        18       1      64      66      54      55                
CQUAD4        19       1      26      27      64      55                
CQUAD4        20       1      68      69      71      72                
$ ... 204 like lines cut
ENDDATA
