ID C:\Users\Dima\Lame3d2\Mpl,FEMAP
SOL SESTATICS
TIME 10000
CEND
  ECHO = NONE
  DISPLACEMENT(PLOT) = ALL
  SPCFORCE(PLOT) = ALL
  OLOAD(PLOT) = ALL
  FORCE(PLOT,CORNER) = ALL
  STRESS(PLOT,CORNER) = ALL
BEGIN BULK
$ ***************************************************************************
$   Written by : FEMAP
$   Version    : 7.00
$   Translator : MSC/NASTRAN
$   From Model : C:\Users\Dima\Lame3d2\Mpls_all\Exe\Box2d_homog\Solid\model.mod
$   Date       : Sun Jun 17 14:16:45 2007
$ ***************************************************************************
$
PARAM,POST,-1
PARAM,OGEOM,NO
PARAM,AUTOSPC,YES
PARAM,GRDPNT,0
CORD2C         1       0      0.      0.      0.      0.      0.      1.+FEMAPC1
+FEMAPC1      1.      0.      1.
CORD2S         2       0      0.      0.      0.      0.      0.      1.+FEMAPC2
+FEMAPC2      1.      0.      1.
$ FEMAP Load Set 111 : Inclusion BSOURCE 1. 0.4 0.8 0.2 0.
$ FEMAP Property 1 : Matrix
PSHELL         1       1      0.       1               1              0.
$ FEMAP Property 2 : Fulleren
PSHELL         2       1      0.       1               1              0.
$ FEMAP Material 1 : mat
MAT1           1                              0.      0.      0.        
GRID           3       0 0.85587 0.62651      0.       0        
GRID           4       0 0.71612 0.61613      0.       0        
GRID           9       0 0.22006 0.47866      0.       0        
GRID          10       0 0.18261 0.43994      0.       0        
GRID          11       0    0.17     0.4      0.       0        
GRID          14       0  0.2812   0.285      0.       0        
GRID          15       0 0.36418 0.25216      0.       0        
GRID          16       0 0.46649 0.22381      0.       0        
GRID          17       0   0.585 0.20081      0.       0        
GRID          18       0 0.71612 0.18387      0.       0        
GRID          22       0 0.86108 0.20304      0.       0        
GRID          28       0 0.24825  0.3316      0.       0        
GRID          29       0 0.21215 0.36527      0.       0        
GRID          33       0 0.30718     0.5      0.       0        
GRID          34       0 0.38716 0.52856      0.       0        
GRID          35       0 0.48577 0.55321      0.       0        
GRID          37       0 0.72638 0.58794      0.       0        
GRID          39       0      0.      0.      0.       0        
GRID          40       0     0.1      0.      0.       0        
GRID          41       0     0.2      0.      0.       0        
$ ... 285 like lines cut
CQUAD4         1       1     155     246       3     156                
CQUAD4         2       1     156       3       4      37                
CQUAD4         3       1      37       4      66     158                
CQUAD4         4       1     158      66      65      35                
CQUAD4         5       1      35      65      64      34                
CQUAD4         6       1      34      64      63      33                
CQUAD4         7       1      33      63       9     162                
CQUAD4         8       1     162       9      10     163                
CQUAD4         9       1     163      10      11     164                
CQUAD4        10       1     164      11      59      29                
CQUAD4        11       1      29      59      58      28                
CQUAD4        12       1      28      58      14     167                
CQUAD4        13       1     167      14      15     168                
CQUAD4        14       1     168      15      16     169                
CQUAD4        15       1     169      16      17     170                
CQUAD4        16       1     170      17      18     171                
CQUAD4        17       1     171      18      52      22                
CQUAD4        18       1      22      52     208     209                
CQUAD4        19       1      74      75      94      96                
CQUAD4        20       1      73      74      96      97                
$ ... 256 like lines cut
ENDDATA
