ID C:\Users\Dima\Lame3d2\Mpl,FEMAP
SOL SESTATICS
TIME 10000
CEND
  ECHO = NONE
  DISPLACEMENT(PLOT) = ALL
  SPCFORCE(PLOT) = ALL
  OLOAD(PLOT) = ALL
  FORCE(PLOT,CORNER) = ALL
  STRESS(PLOT,CORNER) = ALL
BEGIN BULK
$ ***************************************************************************
$   Written by : FEMAP
$   Version    : 7.00
$   Translator : MSC/NASTRAN
$   From Model : C:\Users\Dima\Lame3d2\Mpls_all\Exe\Box2d_fulleren\Solid\box2D_sphere.MOD
$   Date       : Mon Dec 27 18:03:16 2004
$ ***************************************************************************
$
PARAM,POST,-1
PARAM,OGEOM,NO
PARAM,AUTOSPC,YES
PARAM,GRDPNT,0
CORD2C         1       0      0.      0.      0.      0.      0.      1.+FEMAPC1
+FEMAPC1      1.      0.      1.
CORD2S         2       0      0.      0.      0.      0.      0.      1.+FEMAPC2
+FEMAPC2      1.      0.      1.
$ FEMAP Load Set 111 : Inclusion BSOURCE 1. 0.6 0.5 0.2 0.
$ FEMAP Property 1 : Matrix
PSHELL         1       1      0.       1               1              0.
$ FEMAP Property 2 : Inclusion
PSHELL         2       1      0.       1               1              0.
$ FEMAP Material 1 : Mat
MAT1           1  2.E+11            0.28      0.      0.      0.        
GRID        2494       0   0.625     0.6      0.       0        
GRID        2500       0 0.84549 0.79021      0.       0        
GRID        2501       0 0.70611  0.7618      0.       0        
GRID        2503       0 0.52447  0.6618      0.       0        
GRID        2504       0 0.81993 0.68972      0.       0        
GRID        2505       0 0.92327 0.69664      0.       0        
GRID        2506       0      0.     1.2      0.       0        
GRID        2507       0      0.    1.08      0.       0        
GRID        2508       0      0.    0.96      0.       0        
GRID        2509       0      0.    0.84      0.       0        
GRID        2510       0      0.    0.72      0.       0        
GRID        2511       0      0.     0.6      0.       0        
GRID        2512       0   0.125     0.6      0.       0        
GRID        2517       0 0.59549 0.71756      0.       0        
GRID        2520       0      1.     0.8      0.       0        
GRID        2522       0      1. 1.06667      0.       0        
GRID        2524       0 0.88889     1.2      0.       0        
GRID        2525       0 0.77778     1.2      0.       0        
GRID        2526       0 0.66667     1.2      0.       0        
GRID        2527       0 0.55556     1.2      0.       0        
$ ... 195 like lines cut
CTRIA3      3517       2    2500    2504    2505                        
CTRIA3      3518       2    2520    2500    2505                        
CTRIA3      3519       2    2632    2520    2505                        
CTRIA3      3520       2    2631    2632    2505                        
CTRIA3      3521       2    2563    2631    2505                        
CTRIA3      3522       2    2563    2505    2504                        
CTRIA3      3523       2    2562    2563    2504                        
CTRIA3      3524       2    2504    2500    2501                        
CTRIA3      3525       2    2562    2504    2501                        
CTRIA3      3526       2    2494    2562    2501                        
CTRIA3      3527       2    2494    2501    2517                        
CTRIA3      3528       2    2494    2517    2503                        
CTRIA3      3529       2    2560    2494    2503                        
CTRIA3      3530       1    2533    2537    2541                        
CTRIA3      3531       1    2532    2533    2541                        
CTRIA3      3532       1    2532    2541    2542                        
CTRIA3      3533       1    2527    2532    2542                        
CTRIA3      3534       1    2526    2527    2542                        
CTRIA3      3535       1    2537    2538    2539                        
CTRIA3      3536       1    2541    2537    2539                        
$ ... 352 like lines cut
ENDDATA
