ID C:\Users\Dima\Lame3d2\Mpl,FEMAP
SOL SESTATICS
TIME 10000
CEND
  ECHO = NONE
  DISPLACEMENT(PLOT) = ALL
  SPCFORCE(PLOT) = ALL
  OLOAD(PLOT) = ALL
  FORCE(PLOT,CORNER) = ALL
  STRESS(PLOT,CORNER) = ALL
BEGIN BULK
$ ***************************************************************************
$   Written by : FEMAP
$   Version    : 7.00
$   Translator : MSC/NASTRAN
$   From Model : C:\Users\Dima\Lame3d2\Mpls_all\Exe\Box2d_fulleren\Solid\box2D_sphere.MOD
$   Date       : Mon Dec 27 18:46:29 2004
$ ***************************************************************************
$
PARAM,POST,-1
PARAM,OGEOM,NO
PARAM,AUTOSPC,YES
PARAM,GRDPNT,0
CORD2C         1       0      0.      0.      0.      0.      0.      1.+FEMAPC1
+FEMAPC1      1.      0.      1.
CORD2S         2       0      0.      0.      0.      0.      0.      1.+FEMAPC2
+FEMAPC2      1.      0.      1.
$ FEMAP Load Set 111 : Inclusion BSOURCE 1. 0.6 0.2 0.5 0.
$ FEMAP Property 1 : Matrix
PSHELL         1       1      0.       1               1              0.
$ FEMAP Property 2 : Inclusion
PSHELL         2       1      0.       1               1              0.
$ FEMAP Material 1 : Mat
MAT1           1  2.E+11            0.28      0.      0.      0.        
GRID        2494       0     0.9     0.6      0.       0        
GRID        2500       0      1.     1.1      0.       0        
GRID        2503       0 0.85858 0.95355      0.       0        
GRID        2505       0 0.80681 0.72941      0.       0        
GRID        2506       0 0.90971 0.76965      0.       0        
GRID        2507       0 0.92165 0.87088      0.       0        
GRID        2508       0 0.93608 0.95161      0.       0        
GRID        2509       0 0.90267 0.66654      0.       0        
GRID        2510       0      0.     1.2      0.       0        
GRID        2511       0      0.     1.1      0.       0        
GRID        2512       0      0.      1.      0.       0        
GRID        2513       0      0.     0.9      0.       0        
GRID        2514       0      0.     0.8      0.       0        
GRID        2515       0      0.     0.7      0.       0        
GRID        2516       0      0.     0.6      0.       0        
GRID        2517       0     0.1     0.6      0.       0        
GRID        2520       0     0.4     0.6      0.       0        
GRID        2521       0     0.5     0.6      0.       0        
GRID        2522       0     0.6     0.6      0.       0        
GRID        2523       0     0.7     0.6      0.       0        
$ ... 309 like lines cut
CTRIA3      3517       2    2695    2500    2529                        
CTRIA3      3518       2    2695    2529    2528                        
CTRIA3      3519       2    2503    2526    2507                        
CTRIA3      3520       2    2503    2507    2508                        
CTRIA3      3521       2    2528    2503    2508                        
CTRIA3      3522       2    2695    2528    2508                        
CTRIA3      3523       2    2694    2695    2508                        
CTRIA3      3524       2    2694    2508    2507                        
CTRIA3      3525       2    2526    2505    2506                        
CTRIA3      3526       2    2507    2526    2506                        
CTRIA3      3527       2    2693    2694    2507                        
CTRIA3      3528       2    2693    2507    2506                        
CTRIA3      3529       2    2692    2693    2506                        
CTRIA3      3530       2    2692    2506    2509                        
CTRIA3      3531       2    2691    2692    2509                        
CTRIA3      3532       2    2494    2691    2509                        
CTRIA3      3533       2    2509    2506    2505                        
CTRIA3      3534       2    2622    2494    2509                        
CTRIA3      3535       2    2622    2509    2505                        
CTRIA3      3536       1    2545    2546    2548                        
$ ... 568 like lines cut
ENDDATA
