ID FEMAP,FEMAP
SOL SESTATICS
TIME 10000
CEND
  ECHO = NONE
  DISPLACEMENT(PLOT) = ALL
  SPCFORCE(PLOT) = ALL
  OLOAD(PLOT) = ALL
  FORCE(PLOT,CORNER) = ALL
  STRESS(PLOT,CORNER) = ALL
BEGIN BULK
$ ***************************************************************************
$   Written by : FEMAP
$   Version    : 7.00
$   Translator : MSC/NASTRAN
$   From Model : 
$   Date       : Mon Dec 27 17:52:34 2004
$ ***************************************************************************
$
PARAM,POST,-1
PARAM,OGEOM,NO
PARAM,AUTOSPC,YES
PARAM,GRDPNT,0
CORD2C         1       0      0.      0.      0.      0.      0.      1.+FEMAPC1
+FEMAPC1      1.      0.      1.
CORD2S         2       0      0.      0.      0.      0.      0.      1.+FEMAPC2
+FEMAPC2      1.      0.      1.
$ FEMAP Load Set 111 : Inclusion BSOURCE 1. 0.6 0.3 0.2 0.
$ FEMAP Property 1 : Untitled
PSHELL         1       1      0.       1      1.       1 0.83333      0.
$ FEMAP Property 2 : Untitled
PSHELL         2       1      0.       1      1.       1 0.83333      0.
$ FEMAP Material 1 : Untitled
MAT1           1  2.E+117.81E+10    0.28      0.      0.      0.        
GRID        7328       0      1.     0.7      0.       0        
GRID        7333       0  0.8367 0.67933      0.       0        
GRID        7334       0 0.92443 0.67275      0.       0        
GRID        7335       0      0.     1.2      0.       0        
GRID        7336       0      0.     1.1      0.       0        
GRID        7337       0      0.      1.      0.       0        
GRID        7338       0      0.     0.9      0.       0        
GRID        7339       0      0.     0.8      0.       0        
GRID        7340       0      0.     0.7      0.       0        
GRID        7342       0     0.1     0.6      0.       0        
GRID        7343       0     0.2     0.6      0.       0        
GRID        7344       0     0.3     0.6      0.       0        
GRID        7347       0     0.6     0.6      0.       0        
GRID        7349       0 0.72284 0.67654      0.       0        
GRID        7350       0 0.78787 0.74142      0.       0        
GRID        7351       0 0.88519 0.78478      0.       0        
GRID        7353       0      1.     0.9      0.       0        
GRID        7357       0     0.9     1.2      0.       0        
GRID        7358       0     0.8     1.2      0.       0        
GRID        7359       0     0.7     1.2      0.       0        
$ ... 285 like lines cut
CTRIA3     10719       2    7351    7350    7333                        
CTRIA3     10720       2    7351    7333    7334                        
CTRIA3     10721       2    7328    7509    7351                        
CTRIA3     10722       2    7328    7351    7334                        
CTRIA3     10723       2    7597    7328    7334                        
CTRIA3     10724       2    7416    7597    7334                        
CTRIA3     10725       2    7416    7334    7333                        
CTRIA3     10726       2    7415    7416    7333                        
CTRIA3     10727       2    7333    7350    7349                        
CTRIA3     10728       2    7415    7333    7349                        
CTRIA3     10729       2    7438    7415    7349                        
CTRIA3     10730       1    7366    7372    7377                        
CTRIA3     10731       1    7359    7366    7377                        
CTRIA3     10732       1    7358    7359    7377                        
CTRIA3     10733       1    7372    7373    7375                        
CTRIA3     10734       1    7377    7372    7375                        
CTRIA3     10735       1    7377    7375    7376                        
CTRIA3     10736       1    7358    7377    7376                        
CTRIA3     10737       1    7357    7358    7376                        
CTRIA3     10738       1    7535    7536    7357                        
$ ... 524 like lines cut
ENDDATA
