ID C:\Users\Dima\Lame3d2\Mpl,FEMAP
SOL SESTATICS
TIME 10000
CEND
  ECHO = NONE
  DISPLACEMENT(PLOT) = ALL
  SPCFORCE(PLOT) = ALL
  OLOAD(PLOT) = ALL
  FORCE(PLOT,CORNER) = ALL
  STRESS(PLOT,CORNER) = ALL
BEGIN BULK
$ ***************************************************************************
$   Written by : FEMAP
$   Version    : 7.00
$   Translator : MSC/NASTRAN
$   From Model : C:\Users\Dima\Lame3d2\Mpls_all\Exe\Box2d_fulleren\Solid\model.MOD
$   Date       : Mon Apr 17 13:27:32 2006
$ ***************************************************************************
$
PARAM,POST,-1
PARAM,OGEOM,NO
PARAM,AUTOSPC,YES
PARAM,GRDPNT,0
CORD2C         1       0      0.      0.      0.      0.      0.      1.+FEMAPC1
+FEMAPC1      1.      0.      1.
CORD2S         2       0      0.      0.      0.      0.      0.      1.+FEMAPC2
+FEMAPC2      1.      0.      1.
$ FEMAP Load Set 111 : Inclusion BSOURCE 1. 0.4 0.8 0.2 0.
$ FEMAP Property 1 : Matrix
PSHELL         1       1      0.       1               1              0.
$ FEMAP Property 2 : Fulleren
PSHELL         2       1      0.       1               1              0.
$ FEMAP Material 1 : mat
MAT1           1                              0.      0.      0.        
GRID          28       0 0.83333     0.8      0.       0        
GRID          29       0 0.66667     0.8      0.       0        
GRID          30       0     0.5     0.8      0.       0        
GRID          31       0 0.33333     0.8      0.       0        
GRID          32       0 0.16667     0.8      0.       0        
GRID          33       0      0.     0.8      0.       0        
GRID          34       0      0.     0.6      0.       0        
GRID          35       0      0.     0.4      0.       0        
GRID          36       0      0.     0.2      0.       0        
GRID          37       0      0.      0.      0.       0        
GRID          38       0 0.16667      0.      0.       0        
GRID          39       0 0.33333      0.      0.       0        
GRID          40       0     0.5      0.      0.       0        
GRID          41       0 0.66667      0.      0.       0        
GRID          42       0 0.83333      0.      0.       0        
GRID          43       0      1.      0.      0.       0        
GRID          45       0 0.75279 0.20979      0.       0        
GRID          48       0 0.23915  0.3382      0.       0        
GRID          51       0 0.35279 0.51756      0.       0        
GRID          54       0 0.38942 0.14019      0.       0        
$ ... 53 like lines cut
CTRIA3        31       1      42      43      93                        
CTRIA3        32       1      42      93      45                        
CTRIA3        33       1      41      42      45                        
CTRIA3        34       1      41      45      70                        
CTRIA3        35       1      40      41      70                        
CTRIA3        36       1      40      70      54                        
CTRIA3        37       1      39      40      54                        
CTRIA3        38       1      39      54      55                        
CTRIA3        39       1      38      39      55                        
CTRIA3        40       1      36      37      38                        
CTRIA3        41       1      36      38      55                        
CTRIA3        42       1      54      70      69                        
CTRIA3        43       1      55      54      69                        
CTRIA3        44       1      55      69      48                        
CTRIA3        45       1      55      48      56                        
CTRIA3        46       1      36      55      56                        
CTRIA3        47       1      56      48      67                        
CTRIA3        48       1      35      36      56                        
CTRIA3        49       1      35      56      67                        
CTRIA3        50       1      51      64      57                        
$ ... 92 like lines cut
ENDDATA
