ID C:\Users\Dima\Lame3d2\Mpl,FEMAP
SOL SESTATICS
TIME 10000
CEND
  ECHO = NONE
  DISPLACEMENT(PLOT) = ALL
  SPCFORCE(PLOT) = ALL
  OLOAD(PLOT) = ALL
  FORCE(PLOT,CORNER) = ALL
  STRESS(PLOT,CORNER) = ALL
BEGIN BULK
$ ***************************************************************************
$   Written by : FEMAP
$   Version    : 7.00
$   Translator : MSC/NASTRAN
$   From Model : C:\Users\Dima\Lame3d2\Mpls_all\Exe\Box2d_fulleren\Solid\box2D_sphere.MOD
$   Date       : Tue Dec 28 09:54:24 2004
$ ***************************************************************************
$
PARAM,POST,-1
PARAM,OGEOM,NO
PARAM,AUTOSPC,YES
PARAM,GRDPNT,0
CORD2C         1       0      0.      0.      0.      0.      0.      1.+FEMAPC1
+FEMAPC1      1.      0.      1.
CORD2S         2       0      0.      0.      0.      0.      0.      1.+FEMAPC2
+FEMAPC2      1.      0.      1.
$ FEMAP Load Set 111 : Inclusion BSOURCE 1. 0.6 0.2 0.4 0.
$ FEMAP Property 1 : Matrix
PSHELL         1       1      0.       1               1              0.
$ FEMAP Property 2 : Inclusion
PSHELL         2       1      0.       1               1              0.
$ FEMAP Material 1 : Mat
MAT1           1  2.E+11            0.28      0.      0.      0.        
GRID        2494       0     0.9     0.6      0.       0        
GRID        2496       0      1. 0.73333      0.       0        
GRID        2497       0      1. 0.86667      0.       0        
GRID        2499       0 0.92346 0.96955      0.       0        
GRID        2500       0 0.85858 0.88284      0.       0        
GRID        2502       0 0.91711 0.81486      0.       0        
GRID        2503       0 0.90536 0.68353      0.       0        
GRID        2504       0      0.     1.2      0.       0        
GRID        2505       0      0.    1.08      0.       0        
GRID        2506       0      0.    0.96      0.       0        
GRID        2507       0      0.    0.84      0.       0        
GRID        2508       0      0.    0.72      0.       0        
GRID        2509       0      0.     0.6      0.       0        
GRID        2513       0 0.45714     0.6      0.       0        
GRID        2517       0 0.81522 0.75307      0.       0        
GRID        2520       0      1.      1.      0.       0        
GRID        2522       0      1.     1.2      0.       0        
GRID        2523       0 0.88889     1.2      0.       0        
GRID        2524       0 0.77778     1.2      0.       0        
GRID        2525       0 0.66667     1.2      0.       0        
$ ... 205 like lines cut
CTRIA3      3517       2    2500    2517    2502                        
CTRIA3      3518       2    2499    2500    2502                        
CTRIA3      3519       2    2497    2520    2499                        
CTRIA3      3520       2    2497    2499    2502                        
CTRIA3      3521       2    2496    2497    2502                        
CTRIA3      3522       2    2496    2502    2503                        
CTRIA3      3523       2    2702    2496    2503                        
CTRIA3      3524       2    2494    2702    2503                        
CTRIA3      3525       2    2503    2502    2517                        
CTRIA3      3526       2    2562    2494    2503                        
CTRIA3      3527       2    2562    2503    2517                        
CTRIA3      3528       1    2534    2535    2536                        
CTRIA3      3529       1    2536    2537    2542                        
CTRIA3      3530       1    2534    2536    2542                        
CTRIA3      3531       1    2533    2534    2542                        
CTRIA3      3532       1    2537    2538    2540                        
CTRIA3      3533       1    2542    2537    2540                        
CTRIA3      3534       1    2542    2540    2541                        
CTRIA3      3535       1    2533    2542    2541                        
CTRIA3      3536       1    2532    2533    2541                        
$ ... 372 like lines cut
ENDDATA
