ID C:\Users\Dima\Lame3d2\Mpl,FEMAP
SOL SESTATICS
TIME 10000
CEND
  ECHO = NONE
  DISPLACEMENT(PLOT) = ALL
  SPCFORCE(PLOT) = ALL
  OLOAD(PLOT) = ALL
  FORCE(PLOT,CORNER) = ALL
  STRESS(PLOT,CORNER) = ALL
BEGIN BULK
$ ***************************************************************************
$   Written by : FEMAP
$   Version    : 7.00
$   Translator : MSC/NASTRAN
$   From Model : C:\Users\Dima\Lame3d2\Mpls_all\Exe\Box2d_homog\Solid\model.mod
$   Date       : Sun Sep 23 13:34:46 2007
$ ***************************************************************************
$
PARAM,POST,-1
PARAM,OGEOM,NO
PARAM,AUTOSPC,YES
PARAM,GRDPNT,0
CORD2C         1       0      0.      0.      0.      0.      0.      1.+FEMAPC1
+FEMAPC1      1.      0.      1.
CORD2S         2       0      0.      0.      0.      0.      0.      1.+FEMAPC2
+FEMAPC2      1.      0.      1.
$ FEMAP Load Set 111 : Inclusion BSOURCE 1. 0.4 0.8 0.2 0.
$ FEMAP Property 1 : Matrix
PSHELL         1       1      0.       1               1              0.
$ FEMAP Property 2 : Fulleren
PSHELL         2       1      0.       1               1              0.
$ FEMAP Material 1 : mat
MAT1           1                              0.      0.      0.        
GRID           1       0      0.     0.8      0.       0        
GRID           2       0      0.    0.75      0.       0        
GRID           3       0      0.     0.7      0.       0        
GRID           4       0      0.    0.65      0.       0        
GRID           5       0      0.     0.6      0.       0        
GRID           6       0      0.    0.55      0.       0        
GRID           7       0      0.     0.5      0.       0        
GRID           8       0      0.    0.45      0.       0        
GRID           9       0      0.     0.4      0.       0        
GRID          10       0      0.    0.35      0.       0        
GRID          11       0      0.     0.3      0.       0        
GRID          12       0      0.    0.25      0.       0        
GRID          13       0      0.     0.2      0.       0        
GRID          14       0      0.    0.15      0.       0        
GRID          15       0      0.     0.1      0.       0        
GRID          16       0      0.    0.05      0.       0        
GRID          17       0      0.      0.      0.       0        
GRID          18       0    0.05      0.      0.       0        
GRID          19       0     0.1      0.      0.       0        
GRID          20       0    0.15      0.      0.       0        
$ ... 862 like lines cut
CQUAD4         1       1     121     122     198     203                
CQUAD4         2       1     120     121     203     204                
CQUAD4         3       1     204     205     213     215                
CQUAD4         4       1     120     204     215     216                
CQUAD4         5       1     216     215     213     214                
CQUAD4         6       1     843     120     216     214                
CQUAD4         7       1     207     208     211     217                
CQUAD4         8       1     206     207     217     218                
CQUAD4         9       1     213     205     206     218                
CQUAD4        10       1     214     213     218     219                
CQUAD4        11       1     844     843     214     219                
CQUAD4        12       1     217     211     212     220                
CQUAD4        13       1     219     218     217     220                
CQUAD4        14       1     117     844     219     220                
CQUAD4        15       1     116     117     220     212                
CQUAD4        16       1     212     211     221     226                
CQUAD4        17       1     115     116     212     226                
CQUAD4        18       1     221     222     223     228                
CQUAD4        19       1     228     223     224     227                
CQUAD4        20       1     226     221     228     227                
$ ... 292 like lines cut
CTRIA3       313       1     179     180     451                        
CQUAD4       314       1     179     451     397     396                
CQUAD4       315       1     856     179     396     395                
CQUAD4       316       1     177     856     395     394                
CQUAD4       317       1      81      82     455     462                
CQUAD4       318       1     463     464     465     466                
CQUAD4       319       1      81     462     463     466                
CQUAD4       320       1      80      81     466     465                
CQUAD4       321       1     390      79      80     465                
CQUAD4       322       1     391     390     465     464                
CQUAD4       323       1     462     455     456     459                
CQUAD4       324       1     463     462     459     460                
CQUAD4       325       1     464     463     460     461                
CQUAD4       326       1     392     391     464     461                
CQUAD4       327       1     393     392     461     467                
CQUAD4       328       1     394     393     467     468                
CQUAD4       329       1     176     177     394     468                
CQUAD4       330       1     459     456     457     469                
CQUAD4       331       1     460     459     469     470                
CQUAD4       332       1     467     461     460     470                
CQUAD4       333       1     469     457     458     471                
$ ... 164 like lines cut
CTRIA3       498       1     180     181     451                        
CQUAD4       499       2     672     673     677     679                
CQUAD4       500       2     668     669     672     679                
CQUAD4       501       2     679     677     678     680                
CQUAD4       502       2     667     668     679     680                
CQUAD4       503       2     630     631     667     680                
CQUAD4       504       2     629     630     680     678                
CQUAD4       505       2     677     673     674     681                
CQUAD4       506       2     678     677     681     682                
CQUAD4       507       2     628     629     678     682                
CQUAD4       508       2     682     681     683     685                
CQUAD4       509       2     950     628     682     685                
CQUAD4       510       2     626     950     685     686                
CQUAD4       511       2     686     685     683     684                
CQUAD4       512       2     625     626     686     684                
CQUAD4       513       2     683     681     674     675                
CQUAD4       514       2     684     683     675     676                
CQUAD4       515       2     885     625     684     676                
CQUAD4       516       2     675     674     689     691                
CQUAD4       517       2     676     675     691     692                
CQUAD4       518       2     623     885     676     692                
$ ... 232 like lines cut
CTRIA3       751       1     148     815     987                        
CQUAD4       752       1     148     987     592     591                
CQUAD4       753       1     954     955     988     989                
CQUAD4       754       1     591     919     954     989                
CQUAD4       755       1     148     591     989     988                
CQUAD4       756       1     149     148     988     955                
CTRIA3       757       1     953     114     113                        
CQUAD4       758       1     625     885     953     184                
CTRIA3       759       1     184     183     994                        
CQUAD4       760       1     626     625     184     994                
CQUAD4       761       1     994     852     181     993                
CQUAD4       762       1     950     626     994     993                
CQUAD4       763       1     993     181     180     996                
CQUAD4       764       1     628     950     993     996                
CQUAD4       765       1     996     180     179     995                
CQUAD4       766       1     629     628     996     995                
CQUAD4       767       1     995     179     856     997                
CQUAD4       768       1     630     629     995     997                
CQUAD4       769       1     997     856     177     992                
CQUAD4       770       1     631     630     997     992                
CQUAD4       771       1     992     177     176    1001                
CQUAD4       772       1     632     631     992    1001                
CQUAD4       773       1    1001     176     175    1000                
CQUAD4       774       1     944     632    1001    1000                
CQUAD4       775       1    1000     175     860     999                
CQUAD4       776       1     634     944    1000     999                
CQUAD4       777       1     999     860     861    1002                
CQUAD4       778       1     635     634     999    1002                
CQUAD4       779       1    1002     861     862     998                
$ ... 41 like lines cut
CTRIA3       821       1    1020     882     883                        
CQUAD4       822       1     657     656    1020     884                
CQUAD4       823       1     657     884    1021    1022                
CQUAD4       824       1     954     919     657    1022                
CQUAD4       825       1     955     954    1022    1021                
CQUAD4       826       1     149     955    1021     884                
CTRIA3       827       1     815     146     987                        
CTRIA3       828       1     953     113     184                        
CTRIA3       829       1     183     852     994                        
CTRIA3       830       1    1020     883     884                        
ENDDATA
