ID C:\Users\Dima\Lame3d2\Mpl,FEMAP
SOL SESTATICS
TIME 10000
CEND
  ECHO = NONE
  DISPLACEMENT(PLOT) = ALL
  SPCFORCE(PLOT) = ALL
  OLOAD(PLOT) = ALL
  FORCE(PLOT,CORNER) = ALL
  STRESS(PLOT,CORNER) = ALL
BEGIN BULK
$ ***************************************************************************
$   Written by : FEMAP
$   Version    : 7.00
$   Translator : MSC/NASTRAN
$   From Model : C:\Users\Dima\Lame3d2\Mpls_all\Exe\Box2d_homog\Solid\model.mod
$   Date       : Sun Sep 23 13:38:50 2007
$ ***************************************************************************
$
PARAM,POST,-1
PARAM,OGEOM,NO
PARAM,AUTOSPC,YES
PARAM,GRDPNT,0
CORD2C         1       0      0.      0.      0.      0.      0.      1.+FEMAPC1
+FEMAPC1      1.      0.      1.
CORD2S         2       0      0.      0.      0.      0.      0.      1.+FEMAPC2
+FEMAPC2      1.      0.      1.
$ FEMAP Load Set 111 : Inclusion BSOURCE 1. 0.4 0.8 0.2 0.
$ FEMAP Property 1 : Matrix
PSHELL         1       1      0.       1               1              0.
$ FEMAP Property 2 : Fulleren
PSHELL         2       1      0.       1               1              0.
$ FEMAP Material 1 : mat
MAT1           1                              0.      0.      0.        
GRID        1023       0      0.     0.8      0.       0        
GRID        1024       0      0. 0.77037      0.       0        
GRID        1025       0      0. 0.74074      0.       0        
GRID        1026       0      0. 0.71111      0.       0        
GRID        1027       0      0. 0.68148      0.       0        
GRID        1028       0      0. 0.65185      0.       0        
GRID        1029       0      0. 0.62222      0.       0        
GRID        1030       0      0. 0.59259      0.       0        
GRID        1031       0      0. 0.56296      0.       0        
GRID        1032       0      0. 0.53333      0.       0        
GRID        1033       0      0.  0.5037      0.       0        
GRID        1034       0      0. 0.47407      0.       0        
GRID        1035       0      0. 0.44444      0.       0        
GRID        1036       0      0. 0.41481      0.       0        
GRID        1037       0      0. 0.38519      0.       0        
GRID        1038       0      0. 0.35556      0.       0        
GRID        1039       0      0. 0.32593      0.       0        
GRID        1040       0      0.  0.2963      0.       0        
GRID        1041       0      0. 0.26667      0.       0        
GRID        1042       0      0. 0.23704      0.       0        
$ ... 2210 like lines cut
CQUAD4       831       1    1362    1363    1381    1382                
CQUAD4       832       1    1361    1362    1382    1383                
CQUAD4       833       1    1353    1354    1361    1383                
CQUAD4       834       1    2609    2608    1353    1383                
CQUAD4       835       1    1224    2609    1383    1382                
CQUAD4       836       1    2611    1224    1382    1381                
CQUAD4       837       1    1378    1379    1384    1386                
CQUAD4       838       1    1364    1365    1378    1386                
CQUAD4       839       1    1386    1384    1385    1387                
CQUAD4       840       1    1363    1364    1386    1387                
CQUAD4       841       1    1381    1363    1387    1385                
CQUAD4       842       1    2612    2611    1381    1385                
CQUAD4       843       1    1384    1379    1380    1388                
CQUAD4       844       1    2612    1385    1384    1388                
CQUAD4       845       1    1221    2612    1388    1380                
CQUAD4       846       1    1395    1396    1397    1399                
CQUAD4       847       1    1392    1393    1395    1399                
CQUAD4       848       1    1392    1399    1397    1398                
CQUAD4       849       1    1374    1375    1392    1398                
CQUAD4       850       1    1373    1374    1398    1400                
$ ... 871 like lines cut
CTRIA3      1722       1    1323    1324    2131                        
CQUAD4      1723       1    1323    2131    2130    2146                
CQUAD4      1724       1    1322    1323    2146    2145                
CQUAD4      1725       1    2144    1966    1965    2148                
CQUAD4      1726       1    2145    2144    2148    2149                
CQUAD4      1727       1    1321    1322    2145    2149                
CQUAD4      1728       1    1321    2149    2148    1965                
CQUAD4      1729       1    2634    1321    1965    1964                
CQUAD4      1730       1    1319    2634    1964    1963                
CQUAD4      1731       1    2151    2152    2155    2167                
CQUAD4      1732       1    2150    2151    2167    2168                
CQUAD4      1733       1    1162    1163    2150    2168                
CQUAD4      1734       1    2167    2155    2156    2165                
CQUAD4      1735       1    2168    2167    2165    2166                
CQUAD4      1736       1    1161    1162    2168    2166                
CQUAD4      1737       1    2165    2156    2157    2169                
CQUAD4      1738       1    2166    2165    2169    2170                
CQUAD4      1739       1    1160    1161    2166    2170                
CQUAD4      1740       1    2163    2164    2171    2172                
CQUAD4      1741       1    2158    2159    2163    2172                
CQUAD4      1742       1    2169    2157    2158    2172                
$ ... 295 like lines cut
CTRIA3      2038       1    2677    1278    2408                        
CQUAD4      2039       1    2405    2390    2391    2397                
CQUAD4      2040       1    2397    2398    2429    2431                
CQUAD4      2041       1    2405    2397    2431    2432                
CQUAD4      2042       1    2432    2431    2429    2430                
CQUAD4      2043       1    2406    2405    2432    2430                
CQUAD4      2044       1    2427    2428    2433    2434                
CQUAD4      2045       1    2399    2400    2427    2434                
CQUAD4      2046       1    2429    2398    2399    2434                
CQUAD4      2047       1    2430    2429    2434    2433                
CQUAD4      2048       1    2407    2406    2430    2433                
CQUAD4      2049       1    2408    2407    2433    2428                
CQUAD4      2050       1    2428    2427    2435    2436                
CQUAD4      2051       1    2677    2408    2428    2436                
CQUAD4      2052       1    1276    2677    2436    2435                
CQUAD4      2053       1    2435    2427    2400    2401                
CQUAD4      2054       1    1275    1276    2435    2401                
CQUAD4      2055       1    2680    1275    2401    2402                
CQUAD4      2056       1    2681    2680    2402    2403                
CQUAD4      2057       1    2682    2681    2403    2404                
CQUAD4      2058       1    1340    1271    2682    2404                
$ ... 158 like lines cut
CTRIA3      2217       1    1324    2629    2131                        
CTRIA3      2218       1    1278    2675    2408                        
CQUAD4      2219       1    2804    2805    2806    2807                
CQUAD4      2220       1    2684    2946    2804    2807                
CQUAD4      2221       1    2798    2948    2684    2807                
CQUAD4      2222       1    2797    2798    2807    2806                
CQUAD4      2223       1    2621    1212    2797    2806                
CQUAD4      2224       1    2620    2621    2806    2805                
CQUAD4      2225       1    2804    2946    2945    2802                
CQUAD4      2226       1    2805    2804    2802    2803                
CQUAD4      2227       1    1215    2620    2805    2803                
CQUAD4      2228       1    2802    2945    2687    2808                
CQUAD4      2229       1    2803    2802    2808    2809                
CQUAD4      2230       1    2618    1215    2803    2809                
CQUAD4      2231       1    2808    2687    2688    2811                
CQUAD4      2232       1    2809    2808    2811    2812                
CQUAD4      2233       1    1217    2618    2809    2812                
CQUAD4      2234       1    1218    1217    2812    2813                
CQUAD4      2235       1    2811    2688    2942    2814                
CQUAD4      2236       1    2813    2812    2811    2814                
CQUAD4      2237       1    1218    2813    2814    2942                
CQUAD4      2238       1    1219    1218    2942    2690                
$ ... 22 like lines cut
CTRIA3      2261       1    2820    2920    2712                        
CQUAD4      2262       1    2592    1241    2820    2819                
CQUAD4      2263       1    2819    2712    2918    2818                
CQUAD4      2264       1    2591    2592    2819    2818                
CQUAD4      2265       1    2818    2918    2917    2821                
CQUAD4      2266       1    2590    2591    2818    2821                
CQUAD4      2267       1    2821    2917    2715    2817                
CQUAD4      2268       1    2589    2590    2821    2817                
CQUAD4      2269       1    2817    2715    2915    2823                
CQUAD4      2270       1    1246    2589    2817    2823                
CQUAD4      2271       1    2823    2915    2914    2822                
CQUAD4      2272       1    2587    1246    2823    2822                
CQUAD4      2273       1    2822    2914    2913    2816                
CQUAD4      2274       1    2586    2587    2822    2816                
CQUAD4      2275       1    2816    2913    2912    2826                
CQUAD4      2276       1    2585    2586    2816    2826                
CQUAD4      2277       1    2826    2912    2911    2825                
CQUAD4      2278       1    1250    2585    2826    2825                
CQUAD4      2279       1    2825    2911    2910    2827                
CQUAD4      2280       1    2583    1250    2825    2827                
CQUAD4      2281       1    2827    2910    2909    2824                
$ ... 88 like lines cut
CTRIA3      2370       1    2768    2976    2867                        
CQUAD4      2371       1    2866    1300    1299    2865                
CQUAD4      2372       1    2767    2768    2866    2865                
CQUAD4      2373       1    2865    1299    1298    2868                
CQUAD4      2374       1    2979    2767    2865    2868                
CQUAD4      2375       1    2868    1298    2657    2864                
CQUAD4      2376       1    2765    2979    2868    2864                
CQUAD4      2377       1    2864    2657    2658    2870                
CQUAD4      2378       1    2981    2765    2864    2870                
CQUAD4      2379       1    2870    2658    1295    2869                
CQUAD4      2380       1    2763    2981    2870    2869                
CQUAD4      2381       1    2869    1295    2660    2863                
CQUAD4      2382       1    2762    2763    2869    2863                
CQUAD4      2383       1    2863    2660    1293    2873                
CQUAD4      2384       1    2761    2762    2863    2873                
CQUAD4      2385       1    2873    1293    2662    2872                
CQUAD4      2386       1    2985    2761    2873    2872                
CQUAD4      2387       1    2872    2662    2663    2874                
CQUAD4      2388       1    2986    2985    2872    2874                
CQUAD4      2389       1    2874    2663    2664    2871                
CQUAD4      2390       1    2758    2986    2874    2871                
$ ... 39 like lines cut
CTRIA3      2430       1    2820    2712    2819                        
CTRIA3      2431       1    2768    2867    2866                        
CQUAD4      2432       2    3032    3033    3038    3045                
CQUAD4      2433       2    3031    3032    3045    3046                
CQUAD4      2434       2    3025    3026    3031    3046                
CQUAD4      2435       2    3039    3040    3042    3047                
CQUAD4      2436       2    3045    3038    3039    3047                
CQUAD4      2437       2    3047    3042    3043    3048                
CQUAD4      2438       2    3046    3045    3047    3048                
CQUAD4      2439       2    3046    3048    3043    3044                
CQUAD4      2440       2    3024    3025    3046    3044                
CQUAD4      2441       2    3042    3040    3041    3049                
CQUAD4      2442       2    3043    3042    3049    3050                
CQUAD4      2443       2    3044    3043    3050    3051                
CQUAD4      2444       2    3023    3024    3044    3051                
CQUAD4      2445       2    2787    2959    3023    3051                
CQUAD4      2446       2    2788    2787    3051    3050                
CQUAD4      2447       2    2789    2788    3050    3049                
CQUAD4      2448       2    2790    2789    3049    3041                
CQUAD4      2449       2    3038    3033    3034    3052                
CQUAD4      2450       2    3039    3038    3052    3053                
CQUAD4      2451       2    3053    3054    3055    3057                
$ ... 28 like lines cut
CTRIA3      2480       2    2687    2945    3079                        
CQUAD4      2481       2    2687    3079    3078    3082                
CQUAD4      2482       2    3082    3080    3081    3083                
CQUAD4      2483       2    2688    2687    3082    3083                
CQUAD4      2484       2    2942    2688    3083    3081                
CQUAD4      2485       2    3080    3077    3074    3075                
CQUAD4      2486       2    3081    3080    3075    3076                
CQUAD4      2487       2    2690    2942    3081    3076                
CQUAD4      2488       2    3070    3071    3084    3086                
CQUAD4      2489       2    3033    3032    3070    3086                
CQUAD4      2490       2    3086    3084    3085    3087                
CQUAD4      2491       2    3034    3033    3086    3087                
CQUAD4      2492       2    3074    3034    3087    3085                
CQUAD4      2493       2    3084    3071    3072    3088                
CQUAD4      2494       2    3085    3084    3088    3089                
CQUAD4      2495       2    3075    3074    3085    3089                
CQUAD4      2496       2    3076    3075    3089    3090                
CQUAD4      2497       2    3088    3072    3073    3091                
CQUAD4      2498       2    3090    3089    3088    3091                
CQUAD4      2499       2    3076    3090    3091    3073                
CQUAD4      2500       2    2940    2690    3076    3073                
$ ... 421 like lines cut
CTRIA3      2922       2    2738    2894    3450                        
CQUAD4      2923       2    3448    3437    3414    3415                
CQUAD4      2924       2    3449    3448    3415    3416                
CQUAD4      2925       2    3450    3449    3416    3417                
CQUAD4      2926       2    2739    2738    3450    3417                
CQUAD4      2927       2    2997    2747    3455    3462                
CQUAD4      2928       2    2749    2997    3462    3463                
CQUAD4      2929       2    2995    2749    3463    3464                
CQUAD4      2930       2    3354    2994    2995    3464                
CQUAD4      2931       2    3462    3455    3456    3459                
CQUAD4      2932       2    3463    3462    3459    3460                
CQUAD4      2933       2    3464    3463    3460    3461                
CQUAD4      2934       2    3355    3354    3464    3461                
CQUAD4      2935       2    3457    3458    3465    3467                
CQUAD4      2936       2    3459    3456    3457    3467                
CQUAD4      2937       2    3467    3465    3466    3468                
CQUAD4      2938       2    3460    3459    3467    3468                
CQUAD4      2939       2    3461    3460    3468    3466                
CQUAD4      2940       2    3356    3355    3461    3466                
CQUAD4      2941       2    3411    3357    3356    3466                
CQUAD4      2942       2    3412    3411    3466    3465                
$ ... 27 like lines cut
CTRIA3      2970       2    2945    2946    3079                        
CTRIA3      2971       2    2894    2895    3450                        
ENDDATA
