ID C:\Users\Dima\Lame3d2\Mpl,FEMAP
SOL SESTATICS
TIME 10000
CEND
  ECHO = NONE
  DISPLACEMENT(PLOT) = ALL
  SPCFORCE(PLOT) = ALL
  OLOAD(PLOT) = ALL
  FORCE(PLOT,CORNER) = ALL
  STRESS(PLOT,CORNER) = ALL
BEGIN BULK
$ ***************************************************************************
$   Written by : FEMAP
$   Version    : 7.00
$   Translator : MSC/NASTRAN
$   From Model : C:\Users\Dima\Lame3d2\Mpls_all\Exe\Box2d_homog\Solid\model.mod
$   Date       : Sun Jun 17 14:56:27 2007
$ ***************************************************************************
$
PARAM,POST,-1
PARAM,OGEOM,NO
PARAM,AUTOSPC,YES
PARAM,GRDPNT,0
CORD2C         1       0      0.      0.      0.      0.      0.      1.+FEMAPC1
+FEMAPC1      1.      0.      1.
CORD2S         2       0      0.      0.      0.      0.      0.      1.+FEMAPC2
+FEMAPC2      1.      0.      1.
$ FEMAP Load Set 111 : Inclusion BSOURCE 0.544 0.544 0.344 0.344 0.
$ FEMAP Property 1 : Matrix
PSHELL         1       1      0.       1               1              0.
$ FEMAP Property 2 : Fulleren
PSHELL         2       1      0.       1               1              0.
$ FEMAP Material 1 : mat
MAT1           1                              0.      0.      0.        
GRID           1       0      0.      0.      0.       0        
GRID           2       00.060444      0.      0.       0        
GRID           3       0 0.12089      0.      0.       0        
GRID           4       0 0.18133      0.      0.       0        
GRID           5       0 0.24178      0.      0.       0        
GRID           6       0 0.30222      0.      0.       0        
GRID           7       0 0.36267      0.      0.       0        
GRID           8       0 0.42311      0.      0.       0        
GRID           9       0 0.48356      0.      0.       0        
GRID          10       0   0.544      0.      0.       0        
GRID          16       0   0.372 0.24609      0.       0        
GRID          21       0 0.20523 0.48427      0.       0        
GRID          22       0     0.2   0.544      0.       0        
GRID          24       0 0.22075 0.66165      0.       0        
GRID          26       0 0.28048 0.76512      0.       0        
GRID          27       0 0.32288 0.80752      0.       0        
GRID          30       0 0.48427 0.88277      0.       0        
GRID          33       0   0.544 1.02133      0.       0        
GRID          34       0   0.544   1.088      0.       0        
GRID          35       0 0.48356   1.088      0.       0        
$ ... 420 like lines cut
CQUAD4         1       1      65      66      75      79                
CQUAD4         2       1      64      65      79      80                
CQUAD4         3       1      62      63      64      80                
CQUAD4         4       1      79      75      76      77                
CQUAD4         5       1      80      79      77      78                
CQUAD4         6       1      61      62      80      78                
CQUAD4         7       1      51      52      61      78                
CQUAD4         8       1      50      51      78      77                
CQUAD4         9       1      49      50      77      76                
CQUAD4        10       1      75      66      67      81                
CQUAD4        11       1      82      83      84      85                
CQUAD4        12       1      75      81      82      85                
CQUAD4        13       1      76      75      85      84                
CQUAD4        14       1      48      49      76      84                
CQUAD4        15       1      47      48      84      83                
CQUAD4        16       1      81      67      68      72                
CQUAD4        17       1      82      81      72      73                
CQUAD4        18       1      83      82      73      74                
CQUAD4        19       1      46      47      83      74                
CQUAD4        20       1      45      46      74      89                
$ ... 159 like lines cut
CTRIA3       180       2     197     196     234                        
CQUAD4       181       2     198     197     234     235                
CQUAD4       182       2     199     198     235     236                
CQUAD4       183       2     170     419     199     236                
CQUAD4       184       2     238     239     240     242                
CQUAD4       185       2     237     238     242     243                
CQUAD4       186       2      16     193     237     243                
CQUAD4       187       2     191      16     243     245                
CQUAD4       188       2     245     243     242     244                
CQUAD4       189       2     190     191     245     244                
CQUAD4       190       2     244     242     240     241                
CQUAD4       191       2     189     190     244     241                
CQUAD4       192       2     233     188     189     241                
CQUAD4       193       2     234     233     241     240                
CQUAD4       194       2     235     234     240     239                
CQUAD4       195       2     236     235     239     247                
CQUAD4       196       2     417     170     236     247                
CQUAD4       197       2     247     239     238     246                
CQUAD4       198       2     168     417     247     246                
CQUAD4       199       2     246     238     237     248                
CQUAD4       200       2     167     168     246     248                
$ ... 181 like lines cut
CTRIA3       382       2     444     445     482                        
CQUAD4       383       2     445     446     483     482                
CQUAD4       384       2     446     447     484     483                
CQUAD4       385       2     419     170     484     447                
CQUAD4       386       2     487     486     490     488                
CQUAD4       387       2     486     485     491     490                
CQUAD4       388       2     263     440     491     485                
CQUAD4       389       2     440     439     493     491                
CQUAD4       390       2     491     493     492     490                
CQUAD4       391       2     439     438     492     493                
CQUAD4       392       2     490     492     489     488                
CQUAD4       393       2     438     437     489     492                
CQUAD4       394       2     436     481     489     437                
CQUAD4       395       2     481     482     488     489                
CQUAD4       396       2     482     483     487     488                
CQUAD4       397       2     483     484     495     487                
CQUAD4       398       2     170     417     495     484                
CQUAD4       399       2     487     495     494     486                
CQUAD4       400       2     417     168     494     495                
CQUAD4       401       2     486     494     496     485                
CQUAD4       402       2     168     167     496     494                
CQUAD4       403       2     485     496     442     263                
CQUAD4       404       2     167     261     442     496                
ENDDATA
