ID C:\Users\Dima\Lame3d2\Mpl,FEMAP
SOL SESTATICS
TIME 10000
CEND
  ECHO = NONE
  DISPLACEMENT(PLOT) = ALL
  SPCFORCE(PLOT) = ALL
  OLOAD(PLOT) = ALL
  FORCE(PLOT,CORNER) = ALL
  STRESS(PLOT,CORNER) = ALL
BEGIN BULK
$ ***************************************************************************
$   Written by : FEMAP
$   Version    : 7.00
$   Translator : MSC/NASTRAN
$   From Model : C:\Users\Dima\Lame3d2\Mpls_all\Exe\Box2d_fulleren\Solid\box2D_sphere.MOD
$   Date       : Mon Dec 27 18:36:53 2004
$ ***************************************************************************
$
PARAM,POST,-1
PARAM,OGEOM,NO
PARAM,AUTOSPC,YES
PARAM,GRDPNT,0
CORD2C         1       0      0.      0.      0.      0.      0.      1.+FEMAPC1
+FEMAPC1      1.      0.      1.
CORD2S         2       0      0.      0.      0.      0.      0.      1.+FEMAPC2
+FEMAPC2      1.      0.      1.
$ FEMAP Load Set 111 : Inclusion BSOURCE 1. 0.6 0.2 0.3 0.
$ FEMAP Property 1 : Matrix
PSHELL         1       1      0.       1               1              0.
$ FEMAP Property 2 : Inclusion
PSHELL         2       1      0.       1               1              0.
$ FEMAP Material 1 : Mat
MAT1           1  2.E+11            0.28      0.      0.      0.        
GRID        2495       0      1.     0.6      0.       0        
GRID        2496       0      1.     0.7      0.       0        
GRID        2497       0      1.     0.8      0.       0        
GRID        2500       0 0.85858 0.81213      0.       0        
GRID        2501       0 0.81522 0.71481      0.       0        
GRID        2502       0 0.92067  0.7633      0.       0        
GRID        2503       0 0.92725 0.67557      0.       0        
GRID        2504       0      0.     1.2      0.       0        
GRID        2505       0      0.     1.1      0.       0        
GRID        2506       0      0.      1.      0.       0        
GRID        2507       0      0.     0.9      0.       0        
GRID        2508       0      0.     0.8      0.       0        
GRID        2509       0      0.     0.7      0.       0        
GRID        2510       0      0.     0.6      0.       0        
GRID        2513       0     0.3     0.6      0.       0        
GRID        2516       0     0.6     0.6      0.       0        
GRID        2517       0     0.7     0.6      0.       0        
GRID        2521       0 0.92346 0.87716      0.       0        
GRID        2523       0      1.      1.      0.       0        
GRID        2524       0      1.     1.1      0.       0        
$ ... 289 like lines cut
CTRIA3      3517       2    2521    2500    2502                        
CTRIA3      3518       2    2497    2704    2521                        
CTRIA3      3519       2    2497    2521    2502                        
CTRIA3      3520       2    2496    2497    2502                        
CTRIA3      3521       2    2496    2502    2503                        
CTRIA3      3522       2    2495    2496    2503                        
CTRIA3      3523       2    2585    2495    2503                        
CTRIA3      3524       2    2502    2500    2501                        
CTRIA3      3525       2    2503    2502    2501                        
CTRIA3      3526       2    2585    2503    2501                        
CTRIA3      3527       2    2584    2585    2501                        
CTRIA3      3528       1    2539    2540    2541                        
CTRIA3      3529       1    2539    2541    2546                        
CTRIA3      3530       1    2538    2539    2546                        
CTRIA3      3531       1    2538    2546    2547                        
CTRIA3      3532       1    2537    2538    2547                        
CTRIA3      3533       1    2537    2547    2548                        
CTRIA3      3534       1    2536    2537    2548                        
CTRIA3      3535       1    2536    2548    2549                        
CTRIA3      3536       1    2531    2532    2535                        
$ ... 532 like lines cut
ENDDATA
