ID C:\Users\Dima\Lame3d2\Mpl,FEMAP
SOL SESTATICS
TIME 10000
CEND
  ECHO = NONE
  DISPLACEMENT(PLOT) = ALL
  SPCFORCE(PLOT) = ALL
  OLOAD(PLOT) = ALL
  FORCE(PLOT,CORNER) = ALL
  STRESS(PLOT,CORNER) = ALL
BEGIN BULK
$ ***************************************************************************
$   Written by : FEMAP
$   Version    : 7.00
$   Translator : MSC/NASTRAN
$   From Model : C:\Users\Dima\Lame3d2\Mpls_all\Exe\Box2d_homog\Solid\model.mod
$   Date       : Sun Sep 23 13:40:48 2007
$ ***************************************************************************
$
PARAM,POST,-1
PARAM,OGEOM,NO
PARAM,AUTOSPC,YES
PARAM,GRDPNT,0
CORD2C         1       0      0.      0.      0.      0.      0.      1.+FEMAPC1
+FEMAPC1      1.      0.      1.
CORD2S         2       0      0.      0.      0.      0.      0.      1.+FEMAPC2
+FEMAPC2      1.      0.      1.
$ FEMAP Load Set 111 : Inclusion BSOURCE 1. 0.4 0.8 0.2 0.
$ FEMAP Property 1 : Matrix
PSHELL         1       1      0.       1               1              0.
$ FEMAP Property 2 : Fulleren
PSHELL         2       1      0.       1               1              0.
$ FEMAP Material 1 : mat
MAT1           1                              0.      0.      0.        
GRID        1023       0      0.     0.8      0.       0        
GRID        1024       0      0.    0.78      0.       0        
GRID        1025       0      0.    0.76      0.       0        
GRID        1026       0      0.    0.74      0.       0        
GRID        1027       0      0.    0.72      0.       0        
GRID        1028       0      0.     0.7      0.       0        
GRID        1029       0      0.    0.68      0.       0        
GRID        1030       0      0.    0.66      0.       0        
GRID        1031       0      0.    0.64      0.       0        
GRID        1032       0      0.    0.62      0.       0        
GRID        1033       0      0.     0.6      0.       0        
GRID        1034       0      0.    0.58      0.       0        
GRID        1035       0      0.    0.56      0.       0        
GRID        1036       0      0.    0.54      0.       0        
GRID        1037       0      0.    0.52      0.       0        
GRID        1038       0      0.     0.5      0.       0        
GRID        1039       0      0.    0.48      0.       0        
GRID        1040       0      0.    0.46      0.       0        
GRID        1041       0      0.    0.44      0.       0        
GRID        1042       0      0.    0.42      0.       0        
$ ... 4549 like lines cut
CQUAD4       831       1    1562    1563    1565    1568                
CQUAD4       832       1    1528    1529    1562    1568                
CQUAD4       833       1    1568    1565    1566    1569                
CQUAD4       834       1    1527    1528    1568    1569                
CQUAD4       835       1    1527    1569    1566    1567                
CQUAD4       836       1    1515    1516    1527    1567                
CQUAD4       837       1    1567    1566    1571    1572                
CQUAD4       838       1    4189    1515    1567    1572                
CQUAD4       839       1    1323    4189    1572    1571                
CQUAD4       840       1    1571    1566    1565    1570                
CQUAD4       841       1    4191    1323    1571    1570                
CQUAD4       842       1    1570    1565    1563    1564                
CQUAD4       843       1    4192    4191    1570    1564                
CQUAD4       844       1    1530    1531    1559    1574                
CQUAD4       845       1    1562    1529    1530    1574                
CQUAD4       846       1    1574    1559    1560    1573                
CQUAD4       847       1    1563    1562    1574    1573                
CQUAD4       848       1    1564    1563    1573    1575                
CQUAD4       849       1    1320    4192    1564    1575                
CQUAD4       850       1    1575    1573    1560    1561                
$ ... 88 like lines cut
CTRIA3       939       1    1495    1303    4209                        
CQUAD4       940       1    1494    1495    1305    1646                
CQUAD4       941       1    1645    1630    1629    1643                
CQUAD4       942       1    1646    1645    1643    1644                
CQUAD4       943       1    1493    1494    1646    1644                
CQUAD4       944       1    1627    1625    1626    1647                
CQUAD4       945       1    1650    1651    1652    1653                
CQUAD4       946       1    1647    1648    1650    1653                
CQUAD4       947       1    1627    1647    1653    1652                
CQUAD4       948       1    1628    1627    1652    1651                
CQUAD4       949       1    1643    1629    1628    1651                
CQUAD4       950       1    1650    1648    1649    1654                
CQUAD4       951       1    1643    1651    1650    1654                
CQUAD4       952       1    1644    1643    1654    1649                
CQUAD4       953       1    1492    1493    1644    1649                
CQUAD4       954       1    1491    1492    1649    1648                
CQUAD4       955       1    1490    1491    1648    1647                
CQUAD4       956       1    1489    1490    1647    1626                
CQUAD4       957       1    1655    1656    1664    1667                
CQUAD4       958       1    1547    1546    1655    1667                
CQUAD4       959       1    1667    1664    1665    1668                
$ ... 1660 like lines cut
CTRIA3      2620       1    1477    4215    3156                        
CQUAD4      2621       1    1477    3156    3155    3166                
CQUAD4      2622       1    3165    3141    3140    3167                
CQUAD4      2623       1    3166    3165    3167    3168                
CQUAD4      2624       1    1476    1477    3166    3168                
CQUAD4      2625       1    3167    3140    3139    3169                
CQUAD4      2626       1    3168    3167    3169    3170                
CQUAD4      2627       1    4218    1476    3168    3170                
CQUAD4      2628       1    4218    3170    3169    3139                
CQUAD4      2629       1    1474    4218    3139    3138                
CQUAD4      2630       1    3173    3174    3176    3177                
CQUAD4      2631       1    3171    3172    3173    3177                
CQUAD4      2632       1    2810    2809    3171    3177                
CQUAD4      2633       1    2811    2810    3177    3176                
CQUAD4      2634       1    3176    3174    3175    3178                
CQUAD4      2635       1    2812    2811    3176    3178                
CQUAD4      2636       1    3136    2813    2812    3178                
CQUAD4      2637       1    3137    3136    3178    3175                
CQUAD4      2638       1    3138    3137    3175    3180                
CQUAD4      2639       1    4220    1474    3138    3180                
CQUAD4      2640       1    3180    3175    3174    3179                
CQUAD4      2641       1    4221    4220    3180    3179                
CTRIA3      2642       1    1470    4222    3179                        
CQUAD4      2643       1    1470    3179    3174    3173                
CQUAD4      2644       1    4224    1470    3173    3172                
CQUAD4      2645       1    3181    3182    3183    3184                
CQUAD4      2646       1    2808    2807    3181    3184                
CQUAD4      2647       1    3171    2809    2808    3184                
CQUAD4      2648       1    3172    3171    3184    3183                
CQUAD4      2649       1    1468    4224    3172    3183                
CQUAD4      2650       1    4226    1468    3183    3182                
CQUAD4      2651       1    3181    2807    2806    3185                
CQUAD4      2652       1    3182    3181    3185    3186                
CQUAD4      2653       1    4227    4226    3182    3186                
CQUAD4      2654       1    4227    3186    3185    2806                
CQUAD4      2655       1    1465    4227    2806    2805                
CQUAD4      2656       1    4229    1465    2805    2804                
CQUAD4      2657       1    3213    3214    3217    3221                
CQUAD4      2658       1    3198    3199    3213    3221                
CQUAD4      2659       1    3221    3217    3218    3220                
CQUAD4      2660       1    3197    3198    3221    3220                
CQUAD4      2661       1    3196    3197    3220    3222                
CQUAD4      2662       1    3189    3190    3196    3222                
$ ... 1035 like lines cut
CTRIA3      3698       1    1495    4209    1305                        
CTRIA3      3699       1    4215    1479    3156                        
CTRIA3      3700       1    4222    4221    3179                        
CQUAD4      3701       1    4302    4820    4484    4486                
CTRIA3      3702       1    4474    4300    4301                        
CQUAD4      3703       1    4473    4474    4302    4486                
CQUAD4      3704       1    4486    4484    4485    4487                
CQUAD4      3705       1    4472    4473    4486    4487                
CQUAD4      3706       1    1306    1305    4472    4487                
CQUAD4      3707       1    1307    1306    4487    4485                
CQUAD4      3708       1    4484    4820    4819    4488                
CQUAD4      3709       1    4489    4490    4491    4492                
CQUAD4      3710       1    4484    4488    4489    4492                
CQUAD4      3711       1    4485    4484    4492    4491                
CQUAD4      3712       1    4205    1307    4485    4491                
CQUAD4      3713       1    4204    4205    4491    4490                
CQUAD4      3714       1    4488    4819    4305    4481                
CQUAD4      3715       1    4489    4488    4481    4482                
CQUAD4      3716       1    4490    4489    4482    4483                
CQUAD4      3717       1    4203    4204    4490    4483                
CQUAD4      3718       1    4494    4495    4496    4497                
CQUAD4      3719       1    4307    4493    4494    4497                
CQUAD4      3720       1    4817    4307    4497    4496                
CQUAD4      3721       1    4481    4305    4817    4496                
CQUAD4      3722       1    4482    4481    4496    4495                
$ ... 419 like lines cut
CTRIA3      4142       1    4474    4301    4302                        
CQUAD4      4143       2    4948    4949    4956    4964                
CQUAD4      4144       2    4947    4948    4964    4965                
CQUAD4      4145       2    4946    4947    4965    4966                
CQUAD4      4146       2    4939    4940    4946    4966                
CQUAD4      4147       2    4964    4956    4957    4967                
CQUAD4      4148       2    4965    4964    4967    4968                
CQUAD4      4149       2    4966    4965    4968    4969                
CQUAD4      4150       2    4938    4939    4966    4969                
CQUAD4      4151       2    4967    4957    4958    4961                
CQUAD4      4152       2    4968    4967    4961    4962                
CQUAD4      4153       2    4969    4968    4962    4963                
CQUAD4      4154       2    4937    4938    4969    4963                
CQUAD4      4155       2    4936    4937    4963    4970                
CQUAD4      4156       2    4970    4971    4973    4976                
CQUAD4      4157       2    4976    4973    4974    4975                
CQUAD4      4158       2    4936    4970    4976    4975                
CQUAD4      4159       2    4935    4936    4975    4974                
CQUAD4      4160       2    4974    4973    4977    4978                
CQUAD4      4161       2    4934    4935    4974    4978                
CQUAD4      4162       2    4456    4455    4934    4978                
$ ... 18 like lines cut
CTRIA3      4181       2    4462    4834    4960                        
CQUAD4      4182       2    4462    4960    4959    4992                
CQUAD4      4183       2    4832    4462    4992    4991                
CQUAD4      4184       2    4990    4986    4987    4994                
CQUAD4      4185       2    4991    4990    4994    4995                
CQUAD4      4186       2    4831    4832    4991    4995                
CQUAD4      4187       2    4830    4831    4995    4997                
CQUAD4      4188       2    4997    4995    4994    4996                
CQUAD4      4189       2    4829    4830    4997    4996                
CQUAD4      4190       2    4996    4994    4987    4988                
CQUAD4      4191       2    4829    4996    4988    4989                
CTRIA3      4192       2    4468    4467    4989                        
CQUAD4      4193       2    4950    4951    5002    5003                
CQUAD4      4194       2    4956    4949    4950    5003                
CQUAD4      4195       2    4985    4957    4956    5003                
CQUAD4      4196       2    4986    4985    5003    5002                
CQUAD4      4197       2    5002    4951    4952    5001                
CQUAD4      4198       2    4987    4986    5002    5001                
CQUAD4      4199       2    4952    4953    4998    5005                
CQUAD4      4200       2    5005    4998    4999    5004                
CQUAD4      4201       2    5001    4952    5005    5004                
CQUAD4      4202       2    4987    5001    5004    5006                
CQUAD4      4203       2    5006    5004    4999    5000                
CQUAD4      4204       2    4988    4987    5006    5000                
CQUAD4      4205       2    4998    4953    4954    5007                
CQUAD4      4206       2    4999    4998    5007    5008                
CQUAD4      4207       2    5000    4999    5008    5009                
CQUAD4      4208       2    4989    4988    5000    5009                
CQUAD4      4209       2    5009    5008    5011    5012                
CQUAD4      4210       2    4468    4989    5009    5012                
CQUAD4      4211       2    4469    4468    5012    5011                
CQUAD4      4212       2    5011    5008    5007    5010                
$ ... 909 like lines cut
CTRIA3      5122       2    4903    4391    5820                        
CQUAD4      5123       2    4903    5820    5819    5840                
CQUAD4      5124       2    5840    5838    5839    5841                
CQUAD4      5125       2    4902    4903    5840    5841                
CQUAD4      5126       2    4901    4902    5841    5839                
CQUAD4      5127       2    5838    5818    5817    5836                
CQUAD4      5128       2    5839    5838    5836    5837                
CQUAD4      5129       2    4395    4901    5839    5837                
CQUAD4      5130       2    5813    5814    5842    5843                
CQUAD4      5131       2    5816    5812    5813    5843                
CQUAD4      5132       2    5836    5817    5816    5843                
CQUAD4      5133       2    5837    5836    5843    5842                
CQUAD4      5134       2    4396    4395    5837    5842                
CQUAD4      5135       2    4396    5842    5814    5815                
CTRIA3      5136       2    4398    4898    5815                        
CQUAD4      5137       2    5845    5846    5847    5850                
CQUAD4      5138       2    5844    5845    5850    5851                
CQUAD4      5139       2    5814    5813    5844    5851                
CQUAD4      5140       2    5850    5847    5848    5852                
CQUAD4      5141       2    5851    5850    5852    5853                
CQUAD4      5142       2    5815    5814    5851    5853                
CQUAD4      5143       2    5853    5852    5854    5855                
CQUAD4      5144       2    4398    5815    5853    5855                
CQUAD4      5145       2    4399    4398    5855    5854                
CQUAD4      5146       2    5854    5852    5848    5849                
CQUAD4      5147       2    4895    4399    5854    5849                
CQUAD4      5148       2    5849    5848    5856    5858                
CQUAD4      5149       2    4894    4895    5849    5858                
CQUAD4      5150       2    4893    4894    5858    5859                
CQUAD4      5151       2    5665    4892    4893    5859                
CQUAD4      5152       2    5859    5858    5856    5857                
CQUAD4      5153       2    5666    5665    5859    5857                
CQUAD4      5154       2    5667    5666    5857    5860                
CQUAD4      5155       2    5856    5848    5847    5861                
CQUAD4      5156       2    5860    5857    5856    5861                
$ ... 106 like lines cut
CTRIA3      5263       2    4834    4835    4960                        
CTRIA3      5264       2    4467    4829    4989                        
CTRIA3      5265       2    4391    4390    5820                        
CTRIA3      5266       2    4898    4396    5815                        
ENDDATA
