ID C:\Users\Dima\Lame3d2\Mpl,FEMAP
SOL SESTATICS
TIME 10000
CEND
  ECHO = NONE
  DISPLACEMENT(PLOT) = ALL
  SPCFORCE(PLOT) = ALL
  OLOAD(PLOT) = ALL
  FORCE(PLOT,CORNER) = ALL
  STRESS(PLOT,CORNER) = ALL
BEGIN BULK
$ ***************************************************************************
$   Written by : FEMAP
$   Version    : 7.00
$   Translator : MSC/NASTRAN
$   From Model : C:\Users\Dima\Lame3d2\Mpls_all\Exe\Box2d_homog\Solid\model.mod
$   Date       : Fri Jan 26 18:45:44 2007
$ ***************************************************************************
$
PARAM,POST,-1
PARAM,OGEOM,NO
PARAM,AUTOSPC,YES
PARAM,GRDPNT,0
CORD2C         1       0      0.      0.      0.      0.      0.      1.+FEMAPC1
+FEMAPC1      1.      0.      1.
CORD2S         2       0      0.      0.      0.      0.      0.      1.+FEMAPC2
+FEMAPC2      1.      0.      1.
$ FEMAP Load Set 111 : Inclusion BSOURCE 0.544 0.544 0.344 0.344 0.
$ FEMAP Property 1 : Matrix
PSHELL         1       1      0.       1               1              0.
$ FEMAP Property 2 : Fulleren
PSHELL         2       1      0.       1               1              0.
$ FEMAP Material 1 : mat
MAT1           1                              0.      0.      0.        
GRID           1       0      0.   1.088      0.       0        
GRID           2       0      0.  0.8704      0.       0        
GRID           3       0      0.  0.6528      0.       0        
GRID           4       0      0.  0.4352      0.       0        
GRID           5       0      0.  0.2176      0.       0        
GRID           6       0      0.      0.      0.       0        
GRID           7       0  0.2176      0.      0.       0        
GRID           8       0  0.4352      0.      0.       0        
GRID           9       0  0.6528      0.      0.       0        
GRID          10       0  0.8704      0.      0.       0        
GRID          11       0   1.088      0.      0.       0        
GRID          12       0   1.088  0.2176      0.       0        
GRID          13       0   1.088  0.4352      0.       0        
GRID          14       0   1.088  0.6528      0.       0        
GRID          15       0   1.088  0.8704      0.       0        
GRID          16       0   1.088   1.088      0.       0        
GRID          17       0  0.8704   1.088      0.       0        
GRID          18       0  0.6528   1.088      0.       0        
GRID          19       0  0.4352   1.088      0.       0        
GRID          20       0  0.2176   1.088      0.       0        
$ ... 17 like lines cut
CTRIA3         1       1       9      10      31                        
CTRIA3         2       1      42       9      31                        
CTRIA3         3       1      27      42      31                        
CTRIA3         4       1      31      10      11                        
CTRIA3         5       1      31      11      12                        
CTRIA3         6       1      27      31      12                        
CTRIA3         7       1      27      12      13                        
CTRIA3         8       1      26      27      13                        
CTRIA3         9       1      26      13      14                        
CTRIA3        10       1      35      26      14                        
CTRIA3        11       1      35      14      15                        
CTRIA3        12       1      16      17      32                        
CTRIA3        13       1      15      16      32                        
CTRIA3        14       1      35      15      32                        
CTRIA3        15       1      36      35      32                        
CTRIA3        16       1      32      17      18                        
CTRIA3        17       1      36      32      18                        
CTRIA3        18       1      36      18      19                        
CTRIA3        19       1      23      36      19                        
CTRIA3        20       1      23      19      20                        
$ ... 32 like lines cut
ENDDATA
