ID C:\Users\Dima\Lame3d2\Mpl,FEMAP
SOL SESTATICS
TIME 10000
CEND
  ECHO = NONE
  DISPLACEMENT(PLOT) = ALL
  SPCFORCE(PLOT) = ALL
  OLOAD(PLOT) = ALL
  FORCE(PLOT,CORNER) = ALL
  STRESS(PLOT,CORNER) = ALL
BEGIN BULK
$ ***************************************************************************
$   Written by : FEMAP
$   Version    : 7.00
$   Translator : MSC/NASTRAN
$   From Model : C:\Users\Dima\Lame3d2\Mpls_all\Exe\Box2d_homog\Solid\model.mod
$   Date       : Sat Nov 05 17:29:13 2005
$ ***************************************************************************
$
PARAM,POST,-1
PARAM,OGEOM,NO
PARAM,AUTOSPC,YES
PARAM,GRDPNT,0
CORD2C         1       0      0.      0.      0.      0.      0.      1.+FEMAPC1
+FEMAPC1      1.      0.      1.
CORD2S         2       0      0.      0.      0.      0.      0.      1.+FEMAPC2
+FEMAPC2      1.      0.      1.
$ FEMAP Load Set 111 : Inclusion BSOURCE 0.5 0.5 0.35 0.15 90.
$ FEMAP Property 1 : Matrix
PSHELL         1       1      0.       1               1              0.
$ FEMAP Property 2 : Fulleren
PSHELL         2       1      0.       1               1              0.
$ FEMAP Material 1 : Untitled
MAT1           1     7.8     2.3     0.3      0.      0.      0.        
GRID        2844       0    0.45     0.5      0.       0        
GRID        2848       0     0.5   0.675      0.       0        
GRID        2849       0     0.5 0.73333      0.       0        
GRID        2851       0     0.5    0.85      0.       0        
GRID        2852       0 0.46662 0.84122      0.       0        
GRID        2855       0 0.38273 0.71822      0.       0        
GRID        2856       0 0.36485 0.65186      0.       0        
GRID        2857       0 0.35376 0.57788      0.       0        
GRID        2858       0 0.40995 0.60835      0.       0        
GRID        2859       0 0.45802 0.62934      0.       0        
GRID        2860       0 0.44557 0.72269      0.       0        
GRID        2861       0 0.45734 0.76741      0.       0        
GRID        2862       0 0.42677 0.66795      0.       0        
GRID        2863       0 0.45344  0.5765      0.       0        
GRID        2864       0 0.40284 0.54407      0.       0        
GRID        2865       0      0.      1.      0.       0        
GRID        2866       0      0.  0.9375      0.       0        
GRID        2867       0      0.   0.875      0.       0        
GRID        2868       0      0.  0.8125      0.       0        
GRID        2869       0      0.    0.75      0.       0        
$ ... 319 like lines cut
CTRIA3      3884       2    2952    2851    2852                        
CTRIA3      3885       2    2952    2852    2884                        
CTRIA3      3886       2    2883    2855    2860                        
CTRIA3      3887       2    2883    2860    2861                        
CTRIA3      3888       2    2884    2883    2861                        
CTRIA3      3889       2    2952    2884    2861                        
CTRIA3      3890       2    2849    2952    2861                        
CTRIA3      3891       2    2849    2861    2860                        
CTRIA3      3892       2    2856    2857    2858                        
CTRIA3      3893       2    2858    2859    2862                        
CTRIA3      3894       2    2856    2858    2862                        
CTRIA3      3895       2    2855    2856    2862                        
CTRIA3      3896       2    2860    2855    2862                        
CTRIA3      3897       2    2848    2849    2860                        
CTRIA3      3898       2    2848    2860    2862                        
CTRIA3      3899       2    2848    2862    2859                        
CTRIA3      3900       2    2859    2858    2863                        
CTRIA3      3901       2    2949    2848    2859                        
CTRIA3      3902       2    2949    2859    2863                        
CTRIA3      3903       2    2948    2949    2863                        
$ ... 8 like lines cut
CQUAD4      3912       1    2906    2907    2908    2909                
CQUAD4      3913       1    2903    2904    2906    2909                
CQUAD4      3914       1    2897    2898    2903    2909                
CQUAD4      3915       1    2896    2897    2909    2908                
CQUAD4      3916       1    2892    2893    2896    2908                
CQUAD4      3917       1    2891    2892    2908    2907                
CQUAD4      3918       1    2890    2891    2907    2910                
CQUAD4      3919       1    2889    2890    2910    2911                
CQUAD4      3920       1    2887    2888    2889    2911                
CQUAD4      3921       1    2906    2904    2905    2912                
CQUAD4      3922       1    2910    2907    2906    2912                
CTRIA3      3923       1    2887    2911    2913                        
CQUAD4      3924       1    2852    2851    2887    2913                
CQUAD4      3925       1    2913    2911    2910    2912                
CQUAD4      3926       1    2884    2852    2913    2912                
CQUAD4      3927       1    2883    2884    2912    2905                
CQUAD4      3928       1    2899    2900    2914    2918                
CQUAD4      3929       1    2903    2898    2899    2918                
CQUAD4      3930       1    2918    2914    2915    2917                
CQUAD4      3931       1    2904    2903    2918    2917                
CQUAD4      3932       1    2905    2904    2917    2919                
CQUAD4      3933       1    2855    2883    2905    2919                
CQUAD4      3934       1    2919    2917    2915    2916                
CQUAD4      3935       1    2856    2855    2919    2916                
CQUAD4      3936       1    2916    2915    2920    2925                
CQUAD4      3937       1    2925    2920    2921    2923                
CQUAD4      3938       1    2916    2925    2923    2924                
CQUAD4      3939       1    2857    2856    2916    2924                
CQUAD4      3940       1    3046    2857    2924    2927                
CQUAD4      3941       1    2927    2924    2923    2926                
CQUAD4      3942       1    2878    3046    2927    2926                
CQUAD4      3943       1    2926    2923    2921    2922                
$ ... 31 like lines cut
CTRIA3      3975       2    2851    2952    2987                        
CTRIA3      3976       2    2987    2952    2955                        
CTRIA3      3977       2    2984    2956    2962                        
CTRIA3      3978       2    2962    2956    2963                        
CTRIA3      3979       2    2956    2955    2963                        
CTRIA3      3980       2    2955    2952    2963                        
CTRIA3      3981       2    2952    2849    2963                        
CTRIA3      3982       2    2963    2849    2962                        
CTRIA3      3983       2    2982    2983    2960                        
CTRIA3      3984       2    2961    2960    2964                        
CTRIA3      3985       2    2960    2983    2964                        
CTRIA3      3986       2    2983    2984    2964                        
CTRIA3      3987       2    2984    2962    2964                        
CTRIA3      3988       2    2849    2848    2962                        
CTRIA3      3989       2    2962    2848    2964                        
CTRIA3      3990       2    2964    2848    2961                        
CTRIA3      3991       2    2960    2961    2965                        
CTRIA3      3992       2    2848    2949    2961                        
CTRIA3      3993       2    2961    2949    2965                        
CTRIA3      3994       2    2949    2948    2965                        
$ ... 8 like lines cut
CQUAD4      4003       1    3009    3008    3011    3010                
CQUAD4      4004       1    3006    3005    3011    3008                
CQUAD4      4005       1    3000    2999    3011    3005                
CQUAD4      4006       1    2999    2998    3010    3011                
CQUAD4      4007       1    2995    2994    3010    2998                
CQUAD4      4008       1    2994    2993    3009    3010                
CQUAD4      4009       1    2993    2992    3012    3009                
CQUAD4      4010       1    2992    2991    3013    3012                
CQUAD4      4011       1    2888    2887    3013    2991                
CQUAD4      4012       1    3006    3008    3014    3007                
CQUAD4      4013       1    3009    3012    3014    3008                
CTRIA3      4014       1    3013    2887    3015                        
CQUAD4      4015       1    2851    2987    3015    2887                
CQUAD4      4016       1    3013    3015    3014    3012                
CQUAD4      4017       1    2987    2955    3014    3015                
CQUAD4      4018       1    2955    2956    3007    3014                
CQUAD4      4019       1    3002    3001    3020    3016                
CQUAD4      4020       1    3000    3005    3020    3001                
CQUAD4      4021       1    3016    3020    3019    3017                
CQUAD4      4022       1    3005    3006    3019    3020                
CQUAD4      4023       1    3006    3007    3021    3019                
CQUAD4      4024       1    2956    2984    3021    3007                
CQUAD4      4025       1    3019    3021    3018    3017                
CQUAD4      4026       1    2984    2983    3018    3021                
CQUAD4      4027       1    3017    3018    3027    3022                
CQUAD4      4028       1    3022    3027    3025    3023                
CQUAD4      4029       1    3027    3018    3026    3025                
CQUAD4      4030       1    2983    2982    3026    3018                
CQUAD4      4031       1    2982    2981    3029    3026                
CQUAD4      4032       1    3026    3029    3028    3025                
CQUAD4      4033       1    2981    3184    3028    3029                
CQUAD4      4034       1    3025    3028    3024    3023                
$ ... 31 like lines cut
CTRIA3      4066       2    3090    3156    3056                        
CTRIA3      4067       2    3056    3156    3088                        
CTRIA3      4068       2    3059    3087    3064                        
CTRIA3      4069       2    3064    3087    3065                        
CTRIA3      4070       2    3087    3088    3065                        
CTRIA3      4071       2    3088    3156    3065                        
CTRIA3      4072       2    3156    3155    3065                        
CTRIA3      4073       2    3065    3155    3064                        
CTRIA3      4074       2    3084    3060    3062                        
CTRIA3      4075       2    3063    3062    3066                        
CTRIA3      4076       2    3062    3060    3066                        
CTRIA3      4077       2    3060    3059    3066                        
CTRIA3      4078       2    3059    3064    3066                        
CTRIA3      4079       2    3155    3052    3064                        
CTRIA3      4080       2    3064    3052    3066                        
CTRIA3      4081       2    3066    3052    3063                        
CTRIA3      4082       2    3062    3063    3067                        
CTRIA3      4083       2    3052    3051    3063                        
CTRIA3      4084       2    3063    3051    3067                        
CTRIA3      4085       2    3051    3152    3067                        
$ ... 8 like lines cut
CQUAD4      4094       1    3111    3110    3113    3112                
CQUAD4      4095       1    3108    3107    3113    3110                
CQUAD4      4096       1    3102    3101    3113    3107                
CQUAD4      4097       1    3101    3100    3112    3113                
CQUAD4      4098       1    3097    3096    3112    3100                
CQUAD4      4099       1    3096    3095    3111    3112                
CQUAD4      4100       1    3095    3094    3114    3111                
CQUAD4      4101       1    3094    3093    3115    3114                
CQUAD4      4102       1    3092    3193    3115    3093                
CQUAD4      4103       1    3108    3110    3116    3109                
CQUAD4      4104       1    3111    3114    3116    3110                
CTRIA3      4105       1    3115    3193    3117                        
CQUAD4      4106       1    3090    3056    3117    3193                
CQUAD4      4107       1    3115    3117    3116    3114                
CQUAD4      4108       1    3056    3088    3116    3117                
CQUAD4      4109       1    3088    3087    3109    3116                
CQUAD4      4110       1    3104    3103    3122    3118                
CQUAD4      4111       1    3102    3107    3122    3103                
CQUAD4      4112       1    3118    3122    3121    3119                
CQUAD4      4113       1    3107    3108    3121    3122                
CQUAD4      4114       1    3108    3109    3123    3121                
CQUAD4      4115       1    3087    3059    3123    3109                
CQUAD4      4116       1    3121    3123    3120    3119                
CQUAD4      4117       1    3059    3060    3120    3123                
CQUAD4      4118       1    3119    3120    3129    3124                
CQUAD4      4119       1    3124    3129    3127    3125                
CQUAD4      4120       1    3129    3120    3128    3127                
CQUAD4      4121       1    3060    3084    3128    3120                
CQUAD4      4122       1    3084    3046    3131    3128                
CQUAD4      4123       1    3128    3131    3130    3127                
CQUAD4      4124       1    3046    2878    3130    3131                
CQUAD4      4125       1    3127    3130    3126    3125                
$ ... 31 like lines cut
CTRIA3      4157       2    3156    3090    3191                        
CTRIA3      4158       2    3156    3191    3190                        
CTRIA3      4159       2    3189    3161    3166                        
CTRIA3      4160       2    3189    3166    3167                        
CTRIA3      4161       2    3190    3189    3167                        
CTRIA3      4162       2    3156    3190    3167                        
CTRIA3      4163       2    3155    3156    3167                        
CTRIA3      4164       2    3155    3167    3166                        
CTRIA3      4165       2    3187    3186    3164                        
CTRIA3      4166       2    3164    3165    3168                        
CTRIA3      4167       2    3187    3164    3168                        
CTRIA3      4168       2    3161    3187    3168                        
CTRIA3      4169       2    3166    3161    3168                        
CTRIA3      4170       2    3052    3155    3166                        
CTRIA3      4171       2    3052    3166    3168                        
CTRIA3      4172       2    3052    3168    3165                        
CTRIA3      4173       2    3165    3164    3169                        
CTRIA3      4174       2    3051    3052    3165                        
CTRIA3      4175       2    3051    3165    3169                        
CTRIA3      4176       2    3152    3051    3169                        
$ ... 8 like lines cut
CQUAD4      4185       1    3212    3213    3214    3215                
CQUAD4      4186       1    3209    3210    3212    3215                
CQUAD4      4187       1    3203    3204    3209    3215                
CQUAD4      4188       1    3202    3203    3215    3214                
CQUAD4      4189       1    3198    3199    3202    3214                
CQUAD4      4190       1    3197    3198    3214    3213                
CQUAD4      4191       1    3196    3197    3213    3216                
CQUAD4      4192       1    3195    3196    3216    3217                
CQUAD4      4193       1    3193    3092    3195    3217                
CQUAD4      4194       1    3212    3210    3211    3218                
CQUAD4      4195       1    3216    3213    3212    3218                
CTRIA3      4196       1    3193    3217    3219                        
CQUAD4      4197       1    3191    3090    3193    3219                
CQUAD4      4198       1    3219    3217    3216    3218                
CQUAD4      4199       1    3190    3191    3219    3218                
CQUAD4      4200       1    3189    3190    3218    3211                
CQUAD4      4201       1    3205    3206    3220    3224                
CQUAD4      4202       1    3209    3204    3205    3224                
CQUAD4      4203       1    3224    3220    3221    3223                
CQUAD4      4204       1    3210    3209    3224    3223                
CQUAD4      4205       1    3211    3210    3223    3225                
CQUAD4      4206       1    3161    3189    3211    3225                
CQUAD4      4207       1    3225    3223    3221    3222                
CQUAD4      4208       1    3187    3161    3225    3222                
CQUAD4      4209       1    3222    3221    3226    3231                
CQUAD4      4210       1    3231    3226    3227    3229                
CQUAD4      4211       1    3222    3231    3229    3230                
CQUAD4      4212       1    3186    3187    3222    3230                
CQUAD4      4213       1    2981    3186    3230    3233                
CQUAD4      4214       1    3233    3230    3229    3232                
CQUAD4      4215       1    3184    2981    3233    3232                
CQUAD4      4216       1    3232    3229    3227    3228                
$ ... 31 like lines cut
ENDDATA
