ID C:\Users\Dima\Lame3d2\Mpl,FEMAP
SOL SESTATICS
TIME 10000
CEND
  ECHO = NONE
  DISPLACEMENT(PLOT) = ALL
  SPCFORCE(PLOT) = ALL
  OLOAD(PLOT) = ALL
  FORCE(PLOT,CORNER) = ALL
  STRESS(PLOT,CORNER) = ALL
BEGIN BULK
$ ***************************************************************************
$   Written by : FEMAP
$   Version    : 7.00
$   Translator : MSC/NASTRAN
$   From Model : C:\Users\Dima\Lame3d2\Mpls_all\Exe\Box2d_homog\Solid\model.mod
$   Date       : Tue Mar 11 11:34:11 2008
$ ***************************************************************************
$
PARAM,POST,-1
PARAM,OGEOM,NO
PARAM,AUTOSPC,YES
PARAM,GRDPNT,0
CORD2C         1       0      0.      0.      0.      0.      0.      1.+FEMAPC1
+FEMAPC1      1.      0.      1.
CORD2S         2       0      0.      0.      0.      0.      0.      1.+FEMAPC2
+FEMAPC2      1.      0.      1.
$ FEMAP Property 1 : Matrix
PSHELL         1       1      0.       1               1              0.
$ FEMAP Property 2 : Fulleren
PSHELL         2       1      0.       1               1              0.
$ FEMAP Material 1 : mat
MAT1           1                              0.      0.      0.        
GRID           2       0      1. 0.22857      0.       0        
GRID           5       0      1. 0.31429      0.       0        
GRID           9       0 0.97037     0.4      0.       0        
GRID          10       0 0.94074     0.4      0.       0        
GRID          11       0 0.91111     0.4      0.       0        
GRID          13       0 0.85185     0.4      0.       0        
GRID          15       0 0.79259     0.4      0.       0        
GRID          17       0 0.73333     0.4      0.       0        
GRID          18       0  0.7037     0.4      0.       0        
GRID          19       0 0.67407     0.4      0.       0        
GRID          24       0 0.52593     0.4      0.       0        
GRID          26       0 0.46667     0.4      0.       0        
GRID          28       0 0.40741     0.4      0.       0        
GRID          29       0 0.37778     0.4      0.       0        
GRID          31       0 0.31852     0.4      0.       0        
GRID          32       0 0.28889     0.4      0.       0        
GRID          33       0 0.25926     0.4      0.       0        
GRID          34       0 0.22963     0.4      0.       0        
GRID          35       0     0.2     0.4      0.       0        
GRID          36       0 0.20117 0.38917      0.       0        
$ ... 2041 like lines cut
CQUAD4         1       2      79      80      81      83                
CQUAD4         2       2      78      79      83      84                
CQUAD4         3       2     203     202      78      84                
CQUAD4         4       2     204     203      84      86                
CQUAD4         5       2      86      84      83      85                
CQUAD4         6       2     205     204      86      85                
CQUAD4         7       2      85      83      81      82                
CQUAD4         8       2      37     205      85      82                
CTRIA3         9       2      35      36      82                        
CQUAD4        10       2      34      35      82      81                
CQUAD4        11       2      33      34      81      80                
CQUAD4        12       2      78     202     201      75                
CQUAD4        13       2      79      78      75      76                
CQUAD4        14       2      80      79      76      77                
CQUAD4        15       2      32      33      80      77                
CQUAD4        16       2     200     199      71      88                
CQUAD4        17       2      75     201     200      88                
CQUAD4        18       2      88      71      72      87                
CQUAD4        19       2      76      75      88      87                
CQUAD4        20       2      87      72      73      89                
CQUAD4        21       2      77      76      87      89                
CQUAD4        22       2      89      73      74      90                
CQUAD4        23       2      32      77      89      90                
CQUAD4        24       2      31      32      90      74                
CQUAD4        25       2      47     195      68      93                
CQUAD4        26       2     197      47      93      94                
CQUAD4        27       2     198     197      94      95                
CQUAD4        28       2      71     199     198      95                
CQUAD4        29       2      93      68      69      91                
$ ... 68 like lines cut
CTRIA3        98       2     145     143     144                        
CQUAD4        99       2     133     132     145     144                
CQUAD4       100       2     134     133     144     147                
CQUAD4       101       2      17      18     134     147                
CQUAD4       102       2     143     129     130     148                
CQUAD4       103       2     147     144     143     148                
CQUAD4       104       2    1218      17     147     148                
CQUAD4       105       2      15    1218     148     130                
CQUAD4       106       2     151     152     154     157                
CQUAD4       107       2     150     151     157     158                
CQUAD4       108       2     149     150     158     159                
CQUAD4       109       2     182      62     149     159                
CQUAD4       110       2     155     156     160     162                
CQUAD4       111       2     157     154     155     162                
CQUAD4       112       2     158     157     162     163                
CQUAD4       113       2     163     162     160     161                
CQUAD4       114       2     159     158     163     161                
CQUAD4       115       2     183     182     159     161                
CQUAD4       116       2     127     184     183     161                
CQUAD4       117       2     128     127     161     160                
CQUAD4       118       2     129     128     160     156                
$ ... 27 like lines cut
CTRIA3       146       2      36      37      82                        
CQUAD4       147       1    1518     315     241     244                
CQUAD4       148       1     244     241     242     243                
CQUAD4       149       1      35    1518     244     243                
CQUAD4       150       1      36      35     243     242                
CTRIA3       151       1     241     315     314                        
CQUAD4       152       1     242     241     212     240                
CQUAD4       153       1      37      36     242     240                
CQUAD4       154       1     240     212     213     239                
CQUAD4       155       1     205      37     240     239                
CQUAD4       156       1     239     213     311     245                
CQUAD4       157       1     204     205     239     245                
CQUAD4       158       1     245     311     310     246                
CQUAD4       159       1     203     204     245     246                
CTRIA3       160       1     246     310     309                        
CQUAD4       161       1     202     203     246     309                
CQUAD4       162       1     201     202     309     217                
CQUAD4       163       1     200     201     217     218                
CQUAD4       164       1     199     200     218     306                
CQUAD4       165       1     198     199     306     305                
CQUAD4       166       1     197     198     305     304                
CQUAD4       167       1      47     197     304     222                
CQUAD4       168       1     195      47     222     302                
CQUAD4       169       1      49     195     302     224                
CQUAD4       170       1      50      49     224     300                
CQUAD4       171       1      51      50     300     226                
CQUAD4       172       1     191      51     226     227                
CQUAD4       173       1      53     191     227     297                
CQUAD4       174       1      54      53     297     229                
CQUAD4       175       1      55      54     229     295                
CQUAD4       176       1     187      55     295     294                
CQUAD4       177       1     186     187     294     232                
CQUAD4       178       1     185     186     232     292                
CQUAD4       179       1     184     185     292     291                
CQUAD4       180       1     183     184     291     290                
$ ... 4 like lines cut
CTRIA3       185       1     241     314     212                        
CQUAD4       186       1     352     353     358     360                
CQUAD4       187       1     238     288     352     360                
CQUAD4       188       1     238     360     361     362                
CQUAD4       189       1     886     779     238     362                
CQUAD4       190       1     284     886     362     361                
CQUAD4       191       1     361     360     358     359                
CQUAD4       192       1     283     284     361     359                
CQUAD4       193       1     358     353     354     356                
CQUAD4       194       1     359     358     356     357                
CQUAD4       195       1     883     283     359     357                
CQUAD4       196       1     356     354     355     363                
CQUAD4       197       1     357     356     363     364                
CQUAD4       198       1     882     883     357     364                
CQUAD4       199       1     279     280     882     364                
CQUAD4       200       1     278     279     364     363                
CQUAD4       201       1     277     278     363     355                
CQUAD4       202       1     365     366     367     369                
CQUAD4       203       1     349     350     365     369                
CQUAD4       204       1     348     349     369     370                
CQUAD4       205       1     370     369     367     368                
$ ... 298 like lines cut
CTRIA3       504       2     637     636     683                        
CQUAD4       505       2     636     635     682     683                
CQUAD4       506       2     635    1836     681     682                
CQUAD4       507       2     803     679     676     802                
CQUAD4       508       2     679     680     677     676                
CQUAD4       509       2     680     681     678     677                
CQUAD4       510       2    1836     633     678     681                
CQUAD4       511       2     645     801     689     672                
CQUAD4       512       2     802     676     689     801                
CQUAD4       513       2     672     689     688     673                
CQUAD4       514       2     676     677     688     689                
CQUAD4       515       2     673     688     690     674                
CQUAD4       516       2     677     678     690     688                
CQUAD4       517       2     674     690     691     675                
CQUAD4       518       2     678     633     691     690                
CQUAD4       519       2     633    1834     675     691                
CQUAD4       520       2     649     648     694     669                
CQUAD4       521       2     648     647     695     694                
CQUAD4       522       2     647     799     696     695                
CQUAD4       523       2     645     672     696     799                
CQUAD4       524       2     669     694     692     670                
$ ... 68 like lines cut
CTRIA3       593       2     744     746     745                        
CQUAD4       594       2     733     734     745     746                
CQUAD4       595       2     734     735     748     745                
CQUAD4       596       2     619     618     748     735                
CQUAD4       597       2     730     744     749     731                
CQUAD4       598       2     745     748     749     744                
CQUAD4       599       2     618     617     749     748                
CQUAD4       600       2     617     616     731     749                
CQUAD4       601       2     753     752     758     755                
CQUAD4       602       2     752     751     759     758                
CQUAD4       603       2     751     750     760     759                
CQUAD4       604       2     782     783     760     750                
CQUAD4       605       2     757     756     763     761                
CQUAD4       606       2     755     758     763     756                
CQUAD4       607       2     758     759     764     763                
CQUAD4       608       2     763     764     762     761                
CQUAD4       609       2     759     760     762     764                
CQUAD4       610       2     783     661     762     760                
CQUAD4       611       2     785     728     762     661                
CQUAD4       612       2     728     729     761     762                
CQUAD4       613       2     729     730     757     761                
$ ... 27 like lines cut
CTRIA3       641       2     638     637     683                        
CQUAD4       642       1     916     810     845     842                
CQUAD4       643       1     842     845     844     843                
CQUAD4       644       1     810     636     844     845                
CQUAD4       645       1     636     637     843     844                
CTRIA3       646       1     916     842     915                        
CQUAD4       647       1     842     843     841     914                
CQUAD4       648       1     637     638     841     843                
CQUAD4       649       1     914     841     840     913                
CQUAD4       650       1     638     639     840     841                
CQUAD4       651       1     913     840     846     815                
CQUAD4       652       1     639     640     846     840                
CQUAD4       653       1     815     846     847     816                
CQUAD4       654       1     640     641     847     846                
CTRIA3       655       1     816     847     817                        
CQUAD4       656       1     641     803     817     847                
CQUAD4       657       1     803     802     909     817                
CQUAD4       658       1     802     801     819     909                
CQUAD4       659       1     801     645     820     819                
CQUAD4       660       1     645     799     821     820                
CQUAD4       661       1     799     647     822     821                
CQUAD4       662       1     647     648     823     822                
CQUAD4       663       1     648     649     903     823                
CQUAD4       664       1     649     795     825     903                
CQUAD4       665       1     795     651     826     825                
CQUAD4       666       1     651     793     827     826                
CQUAD4       667       1     793     792     828     827                
CQUAD4       668       1     792     791     898     828                
CQUAD4       669       1     791     655     897     898                
CQUAD4       670       1     655     789     831     897                
CQUAD4       671       1     789     788     832     831                
CQUAD4       672       1     788     658     833     832                
CQUAD4       673       1     658     659     834     833                
CQUAD4       674       1     659     785     835     834                
CQUAD4       675       1     785     661     836     835                
$ ... 4 like lines cut
CTRIA3       680       1     915     842     914                        
CQUAD4       681       1     954     953     961     959                
CQUAD4       682       1     889     839     961     953                
CQUAD4       683       1     961     839     963     962                
CQUAD4       684       1     779     886     963     839                
CQUAD4       685       1     886     284     962     963                
CQUAD4       686       1     961     962     960     959                
CQUAD4       687       1     284     283     960     962                
CQUAD4       688       1     954     959     957     955                
CQUAD4       689       1     959     960     958     957                
CQUAD4       690       1     283     883     958     960                
CQUAD4       691       1     955     957     964     956                
CQUAD4       692       1     957     958     965     964                
CQUAD4       693       1     883     882     965     958                
CQUAD4       694       1     280     880     965     882                
CQUAD4       695       1     880     879     964     965                
CQUAD4       696       1     879     878     956     964                
CQUAD4       697       1     967     966     970     968                
CQUAD4       698       1     951     950     970     966                
CQUAD4       699       1     950     949     971     970                
CQUAD4       700       1     970     971     969     968                
$ ... 298 like lines cut
CTRIA3       999       2    1238      35    1284                        
CQUAD4      1000       2      35      34    1283    1284                
CQUAD4      1001       2      34      33    1282    1283                
CQUAD4      1002       2    1404    1280    1277    1244                
CQUAD4      1003       2    1280    1281    1278    1277                
CQUAD4      1004       2    1281    1282    1279    1278                
CQUAD4      1005       2      33      32    1279    1282                
CQUAD4      1006       2    1246    1402    1290    1273                
CQUAD4      1007       2    1244    1277    1290    1402                
CQUAD4      1008       2    1273    1290    1289    1274                
CQUAD4      1009       2    1277    1278    1289    1290                
CQUAD4      1010       2    1274    1289    1291    1275                
CQUAD4      1011       2    1278    1279    1291    1289                
CQUAD4      1012       2    1275    1291    1292    1276                
CQUAD4      1013       2    1279      32    1292    1291                
CQUAD4      1014       2      32      31    1276    1292                
CQUAD4      1015       2    1397    1249    1295    1270                
CQUAD4      1016       2    1249    1248    1296    1295                
CQUAD4      1017       2    1248    1400    1297    1296                
CQUAD4      1018       2    1246    1273    1297    1400                
CQUAD4      1019       2    1270    1295    1293    1271                
$ ... 68 like lines cut
CTRIA3      1088       2    1345    1347    1346                        
CQUAD4      1089       2    1334    1335    1346    1347                
CQUAD4      1090       2    1335    1336    1349    1346                
CQUAD4      1091       2      18      17    1349    1336                
CQUAD4      1092       2    1331    1345    1350    1332                
CQUAD4      1093       2    1346    1349    1350    1345                
CQUAD4      1094       2      17    1218    1350    1349                
CQUAD4      1095       2    1218      15    1332    1350                
CQUAD4      1096       2    1354    1353    1359    1356                
CQUAD4      1097       2    1353    1352    1360    1359                
CQUAD4      1098       2    1352    1351    1361    1360                
CQUAD4      1099       2    1264    1384    1361    1351                
CQUAD4      1100       2    1358    1357    1364    1362                
CQUAD4      1101       2    1356    1359    1364    1357                
CQUAD4      1102       2    1359    1360    1365    1364                
CQUAD4      1103       2    1364    1365    1363    1362                
CQUAD4      1104       2    1360    1361    1363    1365                
CQUAD4      1105       2    1384    1262    1363    1361                
CQUAD4      1106       2    1261    1329    1363    1262                
CQUAD4      1107       2    1329    1330    1362    1363                
CQUAD4      1108       2    1330    1331    1358    1362                
$ ... 27 like lines cut
CTRIA3      1136       2    1408    1238    1284                        
CQUAD4      1137       1    1412    1518    1446    1443                
CQUAD4      1138       1    1443    1446    1445    1444                
CQUAD4      1139       1    1518      35    1445    1446                
CQUAD4      1140       1      35    1238    1444    1445                
CTRIA3      1141       1    1412    1443    1413                        
CQUAD4      1142       1    1443    1444    1442    1515                
CQUAD4      1143       1    1238    1408    1442    1444                
CQUAD4      1144       1    1515    1442    1441    1415                
CQUAD4      1145       1    1408    1240    1441    1442                
CQUAD4      1146       1    1415    1441    1447    1513                
CQUAD4      1147       1    1240    1241    1447    1441                
CQUAD4      1148       1    1513    1447    1448    1417                
CQUAD4      1149       1    1241    1242    1448    1447                
CTRIA3      1150       1    1417    1448    1418                        
CQUAD4      1151       1    1242    1404    1418    1448                
CQUAD4      1152       1    1404    1244    1510    1418                
CQUAD4      1153       1    1244    1402    1509    1510                
CQUAD4      1154       1    1402    1246    1508    1509                
CQUAD4      1155       1    1246    1400    1422    1508                
CQUAD4      1156       1    1400    1248    1423    1422                
CQUAD4      1157       1    1248    1249    1505    1423                
CQUAD4      1158       1    1249    1397    1504    1505                
CQUAD4      1159       1    1397    1251    1426    1504                
CQUAD4      1160       1    1251    1395    1502    1426                
CQUAD4      1161       1    1395    1253    1428    1502                
CQUAD4      1162       1    1253    1393    1429    1428                
CQUAD4      1163       1    1393    1255    1430    1429                
CQUAD4      1164       1    1255    1391    1498    1430                
CQUAD4      1165       1    1391    1257    1432    1498                
CQUAD4      1166       1    1257    1258    1496    1432                
CQUAD4      1167       1    1258    1259    1495    1496                
CQUAD4      1168       1    1259    1387    1494    1495                
CQUAD4      1169       1    1387    1261    1436    1494                
CQUAD4      1170       1    1261    1262    1492    1436                
$ ... 4 like lines cut
CTRIA3      1175       1    1413    1443    1515                        
CQUAD4      1176       1    1555    1554    1562    1560                
CQUAD4      1177       1    1439    1440    1562    1554                
CQUAD4      1178       1    1562    1440    1564    1563                
CQUAD4      1179       1    1380    2088    1564    1440                
CQUAD4      1180       1    2088    1486    1563    1564                
CQUAD4      1181       1    1562    1563    1561    1560                
CQUAD4      1182       1    1486    2086    1561    1563                
CQUAD4      1183       1    1555    1560    1558    1556                
CQUAD4      1184       1    1560    1561    1559    1558                
CQUAD4      1185       1    2086    2085    1559    1561                
CQUAD4      1186       1    1556    1558    1565    1557                
CQUAD4      1187       1    1558    1559    1566    1565                
CQUAD4      1188       1    2085    2084    1566    1559                
CQUAD4      1189       1    1482    1481    1566    2084                
CQUAD4      1190       1    1481    1480    1565    1566                
CQUAD4      1191       1    1480    1479    1557    1565                
CQUAD4      1192       1    1568    1567    1571    1569                
CQUAD4      1193       1    1552    1551    1571    1567                
CQUAD4      1194       1    1551    1550    1572    1571                
CQUAD4      1195       1    1571    1572    1570    1569                
$ ... 298 like lines cut
CTRIA3      1494       2     636    2010    1885                        
CQUAD4      1495       2     635     636    1885    1884                
CQUAD4      1496       2    1836     635    1884    1883                
CQUAD4      1497       2    1881    2005    2004    1878                
CQUAD4      1498       2    1882    1881    1878    1879                
CQUAD4      1499       2    1883    1882    1879    1880                
CQUAD4      1500       2     633    1836    1883    1880                
CQUAD4      1501       2    1846    2002    1874    1891                
CQUAD4      1502       2    1878    2004    1846    1891                
CQUAD4      1503       2    1891    1874    1875    1890                
CQUAD4      1504       2    1879    1878    1891    1890                
CQUAD4      1505       2    1890    1875    1876    1892                
CQUAD4      1506       2    1880    1879    1890    1892                
CQUAD4      1507       2    1892    1876    1877    1893                
CQUAD4      1508       2     633    1880    1892    1893                
CQUAD4      1509       2    1834     633    1893    1877                
CQUAD4      1510       2    1850    1998    1871    1896                
CQUAD4      1511       2    2000    1850    1896    1897                
CQUAD4      1512       2    1848    2000    1897    1898                
CQUAD4      1513       2    1874    2002    1848    1898                
CQUAD4      1514       2    1896    1871    1872    1894                
$ ... 68 like lines cut
CTRIA3      1583       2    1948    1946    1947                        
CQUAD4      1584       2    1936    1935    1948    1947                
CQUAD4      1585       2    1937    1936    1947    1950                
CQUAD4      1586       2     618     619    1937    1950                
CQUAD4      1587       2    1946    1932    1933    1951                
CQUAD4      1588       2    1950    1947    1946    1951                
CQUAD4      1589       2     617     618    1950    1951                
CQUAD4      1590       2     616     617    1951    1933                
CQUAD4      1591       2    1954    1955    1957    1960                
CQUAD4      1592       2    1953    1954    1960    1961                
CQUAD4      1593       2    1952    1953    1961    1962                
CQUAD4      1594       2    1985    1984    1952    1962                
CQUAD4      1595       2    1958    1959    1963    1965                
CQUAD4      1596       2    1960    1957    1958    1965                
CQUAD4      1597       2    1961    1960    1965    1966                
CQUAD4      1598       2    1966    1965    1963    1964                
CQUAD4      1599       2    1962    1961    1966    1964                
CQUAD4      1600       2    1863    1985    1962    1964                
CQUAD4      1601       2    1930    1862    1863    1964                
CQUAD4      1602       2    1931    1930    1964    1963                
CQUAD4      1603       2    1932    1931    1963    1959                
$ ... 27 like lines cut
CTRIA3      1631       2    2010    1840    1885                        
CQUAD4      1632       1     810    2013    2044    2047                
CQUAD4      1633       1    2047    2044    2045    2046                
CQUAD4      1634       1     636     810    2047    2046                
CQUAD4      1635       1    2010     636    2046    2045                
CTRIA3      1636       1    2044    2013    2117                        
CQUAD4      1637       1    2045    2044    2116    2043                
CQUAD4      1638       1    1840    2010    2045    2043                
CQUAD4      1639       1    2043    2116    2016    2042                
CQUAD4      1640       1    2008    1840    2043    2042                
CQUAD4      1641       1    2042    2016    2017    2048                
CQUAD4      1642       1    1842    2008    2042    2048                
CQUAD4      1643       1    2048    2017    2018    2049                
CQUAD4      1644       1    2006    1842    2048    2049                
CTRIA3      1645       1    2049    2018    2019                        
CQUAD4      1646       1    2005    2006    2049    2019                
CQUAD4      1647       1    2004    2005    2019    2111                
CQUAD4      1648       1    1846    2004    2111    2021                
CQUAD4      1649       1    2002    1846    2021    2109                
CQUAD4      1650       1    1848    2002    2109    2023                
CQUAD4      1651       1    2000    1848    2023    2024                
CQUAD4      1652       1    1850    2000    2024    2025                
CQUAD4      1653       1    1998    1850    2025    2105                
CQUAD4      1654       1    1997    1998    2105    2027                
CQUAD4      1655       1    1853    1997    2027    2103                
CQUAD4      1656       1    1995    1853    2103    2102                
CQUAD4      1657       1    1994    1995    2102    2101                
CQUAD4      1658       1    1856    1994    2101    2031                
CQUAD4      1659       1    1857    1856    2031    2032                
CQUAD4      1660       1    1991    1857    2032    2098                
CQUAD4      1661       1    1990    1991    2098    2034                
CQUAD4      1662       1    1860    1990    2034    2035                
CQUAD4      1663       1    1988    1860    2035    2036                
CQUAD4      1664       1    1862    1988    2036    2094                
CQUAD4      1665       1    1863    1862    2094    2093                
$ ... 4 like lines cut
CTRIA3      1670       1    2044    2117    2116                        
CQUAD4      1671       1    2155    2156    2161    2163                
CQUAD4      1672       1    2090    2091    2155    2163                
CQUAD4      1673       1    2090    2163    2164    2165                
CQUAD4      1674       1    2088    1380    2090    2165                
CQUAD4      1675       1    1486    2088    2165    2164                
CQUAD4      1676       1    2164    2163    2161    2162                
CQUAD4      1677       1    2086    1486    2164    2162                
CQUAD4      1678       1    2161    2156    2157    2159                
CQUAD4      1679       1    2162    2161    2159    2160                
CQUAD4      1680       1    2085    2086    2162    2160                
CQUAD4      1681       1    2159    2157    2158    2166                
CQUAD4      1682       1    2160    2159    2166    2167                
CQUAD4      1683       1    2084    2085    2160    2167                
CQUAD4      1684       1    2082    1482    2084    2167                
CQUAD4      1685       1    2081    2082    2167    2166                
CQUAD4      1686       1    2080    2081    2166    2158                
CQUAD4      1687       1    2168    2169    2170    2172                
CQUAD4      1688       1    2152    2153    2168    2172                
CQUAD4      1689       1    2151    2152    2172    2173                
CQUAD4      1690       1    2173    2172    2170    2171                
$ ... 290 like lines cut
ENDDATA
