ID C:\Users\Dima\Lame3d2\Mpl,FEMAP
SOL SESTATICS
TIME 10000
CEND
  ECHO = NONE
  DISPLACEMENT(PLOT) = ALL
  SPCFORCE(PLOT) = ALL
  OLOAD(PLOT) = ALL
  FORCE(PLOT,CORNER) = ALL
  STRESS(PLOT,CORNER) = ALL
BEGIN BULK
$ ***************************************************************************
$   Written by : FEMAP
$   Version    : 7.00
$   Translator : MSC/NASTRAN
$   From Model : C:\Users\Dima\Lame3d2\Mpls_all\Exe\Box2d_homog\Solid\model.mod
$   Date       : Sun Sep 23 13:50:11 2007
$ ***************************************************************************
$
PARAM,POST,-1
PARAM,OGEOM,NO
PARAM,AUTOSPC,YES
PARAM,GRDPNT,0
CORD2C         1       0      0.      0.      0.      0.      0.      1.+FEMAPC1
+FEMAPC1      1.      0.      1.
CORD2S         2       0      0.      0.      0.      0.      0.      1.+FEMAPC2
+FEMAPC2      1.      0.      1.
$ FEMAP Load Set 111 : Inclusion BSOURCE 1. 0.4 0.8 0.2 0.
$ FEMAP Property 1 : Matrix
PSHELL         1       1      0.       1               1              0.
$ FEMAP Property 2 : Fulleren
PSHELL         2       1      0.       1               1              0.
$ FEMAP Material 1 : mat
MAT1           1                              0.      0.      0.        
GRID        1023       0      0.     0.8      0.       0        
GRID        1024       0      0.    0.79      0.       0        
GRID        1025       0      0.    0.78      0.       0        
GRID        1026       0      0.    0.77      0.       0        
GRID        1027       0      0.    0.76      0.       0        
GRID        1028       0      0.    0.75      0.       0        
GRID        1029       0      0.    0.74      0.       0        
GRID        1030       0      0.    0.73      0.       0        
GRID        1031       0      0.    0.72      0.       0        
GRID        1032       0      0.    0.71      0.       0        
GRID        1033       0      0.     0.7      0.       0        
GRID        1034       0      0.    0.69      0.       0        
GRID        1035       0      0.    0.68      0.       0        
GRID        1036       0      0.    0.67      0.       0        
GRID        1037       0      0.    0.66      0.       0        
GRID        1038       0      0.    0.65      0.       0        
GRID        1039       0      0.    0.64      0.       0        
GRID        1040       0      0.    0.63      0.       0        
GRID        1041       0      0.    0.62      0.       0        
GRID        1042       0      0.    0.61      0.       0        
$ ... 17220 like lines cut
CQUAD4       831       1    2093    2094    2098    2102                
CQUAD4       832       1    2089    2090    2093    2102                
CQUAD4       833       1    2102    2098    2099    2101                
CQUAD4       834       1    2088    2089    2102    2101                
CQUAD4       835       1    2101    2099    2100    2103                
CQUAD4       836       1    2087    2088    2101    2103                
CQUAD4       837       1    2035    2036    2087    2103                
CQUAD4       838       1    2034    2035    2103    2100                
CQUAD4       839       1    2098    2094    2095    2104                
CQUAD4       840       1    2099    2098    2104    2105                
CQUAD4       841       1    2100    2099    2105    2106                
CQUAD4       842       1    2033    2034    2100    2106                
CQUAD4       843       1    2106    2105    2107    2110                
CQUAD4       844       1    2032    2033    2106    2110                
CQUAD4       845       1    2110    2107    2108    2111                
CQUAD4       846       1    2031    2032    2110    2111                
CQUAD4       847       1    2031    2111    2108    2109                
CQUAD4       848       1    2009    2010    2031    2109                
CQUAD4       849       1    2104    2095    2096    2112                
CQUAD4       850       1    2107    2105    2104    2112                
$ ... 298 like lines cut
CTRIA3      1149       1    1969    1583    1584                        
CQUAD4      1150       1    1968    1969   12816    2384                
CQUAD4      1151       1    2360    2359    2379    2386                
CQUAD4      1152       1    2382    2361    2360    2386                
CQUAD4      1153       1    2386    2379    2380    2385                
CQUAD4      1154       1    2383    2382    2386    2385                
CQUAD4      1155       1    2384    2383    2385    2387                
CQUAD4      1156       1    1967    1968    2384    2387                
CQUAD4      1157       1    2387    2385    2380    2381                
CQUAD4      1158       1    1966    1967    2387    2381                
CQUAD4      1159       1    2379    2359    2358    2388                
CQUAD4      1160       1    2380    2379    2388    2389                
CQUAD4      1161       1    2381    2380    2389    2390                
CQUAD4      1162       1    1965    1966    2381    2390                
CQUAD4      1163       1    2388    2358    2357    2391                
CQUAD4      1164       1    2389    2388    2391    2392                
CQUAD4      1165       1    2390    2389    2392    2393                
CQUAD4      1166       1    1964    1965    2390    2393                
CQUAD4      1167       1    2391    2357    2353    2354                
CQUAD4      1168       1    2392    2391    2354    2355                
CQUAD4      1169       1    2393    2392    2355    2356                
$ ... 4558 like lines cut
CTRIA3      5728       1   12644    1758    6710                        
CQUAD4      5729       1    6711    6712    6714    6716                
CQUAD4      5730       1    6548    6549    6711    6716                
CQUAD4      5731       1    6716    6714    6715    6717                
CQUAD4      5732       1    6547    6548    6716    6717                
CQUAD4      5733       1    6710    6547    6717    6715                
CQUAD4      5734       1    6715    6714    6718    6719                
CQUAD4      5735       1   12644    6710    6715    6719                
CQUAD4      5736       1   12645   12644    6719    6718                
CQUAD4      5737       1    6718    6714    6712    6713                
CQUAD4      5738       1    1755   12645    6718    6713                
CQUAD4      5739       1    6550    6551    6707    6721                
CQUAD4      5740       1    6711    6549    6550    6721                
CQUAD4      5741       1    6721    6707    6708    6720                
CQUAD4      5742       1    6712    6711    6721    6720                
CQUAD4      5743       1    6720    6708    6709    6722                
CQUAD4      5744       1    6713    6712    6720    6722                
CQUAD4      5745       1   12647    1755    6713    6722                
CQUAD4      5746       1    1753   12647    6722    6709                
CQUAD4      5747       1    6700    6701    6723    6725                
CQUAD4      5748       1    6725    6726    6728    6730                
$ ... 2040 like lines cut
CTRIA3      7789       1   12828    1934    8646                        
CQUAD4      7790       1   12828    8646    8645    8683                
CQUAD4      7791       1   12829   12828    8683    8682                
CQUAD4      7792       1   12830   12829    8682    8681                
CQUAD4      7793       1    8581    8580    8692    8695                
CQUAD4      7794       1    8680    8582    8581    8695                
CQUAD4      7795       1    8695    8692    8693    8694                
CQUAD4      7796       1    8681    8680    8695    8694                
CQUAD4      7797       1    1930   12830    8681    8694                
CQUAD4      7798       1    1929    1930    8694    8693                
CQUAD4      7799       1    8692    8580    8579    8696                
CQUAD4      7800       1    8693    8692    8696    8697                
CQUAD4      7801       1    1928    1929    8693    8697                
CQUAD4      7802       1    8696    8579    8578    8698                
CQUAD4      7803       1    8697    8696    8698    8699                
CQUAD4      7804       1   12834    1928    8697    8699                
CQUAD4      7805       1   12834    8699    8698    8578                
CQUAD4      7806       1    1926   12834    8578    8577                
CQUAD4      7807       1    8710    8711    8714    8717                
CQUAD4      7808       1    8706    8707    8710    8717                
CQUAD4      7809       1    8705    8706    8717    8718                
$ ... 39 like lines cut
CTRIA3      7849       1    1923    1924    8740                        
CQUAD4      7850       1    1923    8740    8739    8738                
CQUAD4      7851       1   12839    1923    8738    8737                
CQUAD4      7852       1   12840   12839    8737    8736                
CQUAD4      7853       1    8736    8706    8705    8742                
CQUAD4      7854       1    1920   12840    8736    8742                
CQUAD4      7855       1    8742    8705    8704    8741                
CQUAD4      7856       1    1919    1920    8742    8741                
CQUAD4      7857       1    8741    8704    8703    8743                
CQUAD4      7858       1    1918    1919    8741    8743                
CQUAD4      7859       1    8743    8703    8701    8702                
CQUAD4      7860       1   12844    1918    8743    8702                
CQUAD4      7861       1    7228    7227    8746    8750                
CQUAD4      7862       1    8700    7229    7228    8750                
CQUAD4      7863       1    8750    8746    8747    8749                
CQUAD4      7864       1    8701    8700    8750    8749                
CQUAD4      7865       1    8702    8701    8749    8751                
CQUAD4      7866       1   12845   12844    8702    8751                
CQUAD4      7867       1    8751    8749    8747    8748                
CQUAD4      7868       1    1915   12845    8751    8748                
CQUAD4      7869       1    7226    7225    8744    8754                
$ ... 2742 like lines cut
CTRIA3     10612       1    1767    1768   11365                        
CQUAD4     10613       1    1767   11365   11133   11134                
CQUAD4     10614       1    1766    1767   11134   11135                
CQUAD4     10615       1    1765    1766   11135   11136                
CQUAD4     10616       1    1764    1765   11136   11137                
CQUAD4     10617       1    1970   12638    1764   11137                
CQUAD4     10618       1   11402   11403   11404   11407                
CQUAD4     10619       1   11398   11399   11402   11407                
CQUAD4     10620       1   11407   11404   11405   11406                
CQUAD4     10621       1   11397   11398   11407   11406                
CQUAD4     10622       1   11367   11368   11397   11406                
CQUAD4     10623       1   11366   11367   11406   11405                
CQUAD4     10624       1   11106   11107   11366   11405                
CQUAD4     10625       1   11105   11106   11405   11404                
CQUAD4     10626       1   11104   11105   11404   11403                
CQUAD4     10627       1   11402   11399   11400   11408                
CQUAD4     10628       1   11403   11402   11408   11409                
CQUAD4     10629       1   11103   11104   11403   11409                
CQUAD4     10630       1   11408   11400   11401   11410                
CQUAD4     10631       1   11409   11408   11410   11411                
CQUAD4     10632       1   11102   11103   11409   11411                
$ ... 1353 like lines cut
CTRIA3     11986       1    1969    1584   12816                        
CTRIA3     11987       1    1758   12642    6710                        
CTRIA3     11988       1    1934    1935    8646                        
CTRIA3     11989       1    1924    1925    8740                        
CTRIA3     11990       1    1768    1769   11365                        
CQUAD4     11991       1   13370   13371   13379   13380                
CQUAD4     11992       1   13369   13370   13380   13381                
CQUAD4     11993       1   13363   13364   13369   13381                
CQUAD4     11994       1   13006   14578   13363   13381                
CQUAD4     11995       1   13005   13006   13381   13380                
CQUAD4     11996       1   14581   13005   13380   13379                
CQUAD4     11997       1   13376   13377   13382   13384                
CQUAD4     11998       1   13372   13373   13376   13384                
CQUAD4     11999       1   13384   13382   13383   13385                
CQUAD4     12000       1   13371   13372   13384   13385                
CQUAD4     12001       1   13379   13371   13385   13383                
CQUAD4     12002       1   13383   13382   13386   13387                
CQUAD4     12003       1   14581   13379   13383   13387                
CQUAD4     12004       1   14582   14581   13387   13386                
CQUAD4     12005       1   13386   13382   13377   13378                
CQUAD4     12006       1   13002   14582   13386   13378                
CQUAD4     12007       1   14584   13002   13378   13390                
CQUAD4     12008       1   13000   14584   13390   13391                
CTRIA3     12009       1   13349   14587   14586                        
CQUAD4     12010       1   13348   13349   13000   13391                
CQUAD4     12011       1   13390   13378   13377   13388                
CQUAD4     12012       1   13391   13390   13388   13389                
CQUAD4     12013       1   13347   13348   13391   13389                
CQUAD4     12014       1   13376   13373   13374   13392                
CQUAD4     12015       1   13388   13377   13376   13392                
CQUAD4     12016       1   13389   13388   13392   13393                
CQUAD4     12017       1   13346   13347   13389   13393                
CQUAD4     12018       1   13393   13392   13374   13375                
CQUAD4     12019       1   13345   13346   13393   13375                
CQUAD4     12020       1   13398   13399   13403   13404                
CQUAD4     12021       1   13394   13395   13398   13404                
CQUAD4     12022       1   13372   13371   13394   13404                
CQUAD4     12023       1   13373   13372   13404   13403                
CQUAD4     12024       1   13403   13399   13400   13402                
CQUAD4     12025       1   13374   13373   13403   13402                
CQUAD4     12026       1   13402   13400   13401   13405                
CQUAD4     12027       1   13375   13374   13402   13405                
CQUAD4     12028       1   13344   13345   13375   13405                
CQUAD4     12029       1   13343   13344   13405   13401                
$ ... 1386 like lines cut
CTRIA3     13416       1   13349   14586   13000                        
CQUAD4     13417       2   14882   14883   14888   14895                
CQUAD4     13418       2   14881   14882   14895   14896                
CQUAD4     13419       2   14880   14881   14896   14897                
CQUAD4     13420       2   14874   14875   14880   14897                
CQUAD4     13421       2   14895   14888   14889   14892                
CQUAD4     13422       2   14896   14895   14892   14893                
CQUAD4     13423       2   14897   14896   14893   14894                
CQUAD4     13424       2   14873   14874   14897   14894                
CQUAD4     13425       2   14892   14889   14890   14898                
CQUAD4     13426       2   14893   14892   14898   14899                
CQUAD4     13427       2   14894   14893   14899   14900                
CQUAD4     13428       2   14872   14873   14894   14900                
CQUAD4     13429       2   14898   14890   14891   14901                
CQUAD4     13430       2   14899   14898   14901   14902                
CQUAD4     13431       2   14900   14899   14902   14903                
CQUAD4     13432       2   14871   14872   14900   14903                
CQUAD4     13433       2   14866   14867   14871   14903                
CQUAD4     13434       2   14865   14866   14903   14902                
CQUAD4     13435       2   14864   14865   14902   14901                
CQUAD4     13436       2   14863   14864   14901   14891                
$ ... 80 like lines cut
CTRIA3     13517       2   13311   14619   14812                        
CQUAD4     13518       2   13311   14812   14813   14965                
CQUAD4     13519       2   14954   14952   14953   14966                
CQUAD4     13520       2   14955   14954   14966   14967                
CQUAD4     13521       2   14965   14956   14955   14967                
CQUAD4     13522       2   13312   13311   14965   14967                
CQUAD4     13523       2   13313   13312   14967   14966                
CQUAD4     13524       2   13314   13313   14966   14953                
CQUAD4     13525       2   14969   14970   14973   14974                
CQUAD4     13526       2   14968   14969   14974   14975                
CQUAD4     13527       2   14868   14869   14968   14975                
CQUAD4     13528       2   14871   14867   14868   14975                
CQUAD4     13529       2   14872   14871   14975   14974                
CQUAD4     13530       2   14873   14872   14974   14973                
CQUAD4     13531       2   14874   14873   14973   14976                
CQUAD4     13532       2   14976   14977   14978   14979                
CQUAD4     13533       2   14875   14874   14976   14979                
CQUAD4     13534       2   14876   14875   14979   14978                
CQUAD4     13535       2   14948   14877   14876   14978                
CQUAD4     13536       2   14949   14948   14978   14977                
CQUAD4     13537       2   14976   14973   14970   14971                
$ ... 57 like lines cut
CTRIA3     13595       2   13322   14608   14870                        
CQUAD4     13596       2   13322   14870   14869   15034                
CQUAD4     13597       2   13323   13322   15034   15033                
CQUAD4     13598       2   13324   13323   15033   15032                
CQUAD4     13599       2   14604   13324   15032   15011                
CQUAD4     13600       2   15046   15047   15050   15051                
CQUAD4     13601       2   15000   15038   15046   15051                
CQUAD4     13602       2   14999   15000   15051   15050                
CQUAD4     13603       2   15050   15047   15048   15049                
CQUAD4     13604       2   14998   14999   15050   15049                
CQUAD4     13605       2   15006   14997   14998   15049                
CQUAD4     13606       2   15007   15006   15049   15048                
CQUAD4     13607       2   15046   15038   15039   15043                
CQUAD4     13608       2   15047   15046   15043   15044                
CQUAD4     13609       2   15048   15047   15044   15045                
CQUAD4     13610       2   15008   15007   15048   15045                
CQUAD4     13611       2   15009   15008   15045   15052                
CQUAD4     13612       2   15010   15009   15052   15053                
CQUAD4     13613       2   15011   15010   15053   15054                
CQUAD4     13614       2   14603   14604   15011   15054                
CQUAD4     13615       2   15043   15039   15040   15055                
$ ... 37 like lines cut
CTRIA3     13653       2   13335   13334   15005                        
CQUAD4     13654       2   15089   15090   15093   15096                
CQUAD4     13655       2   14847   14848   15089   15096                
CQUAD4     13656       2   15096   15093   15094   15095                
CQUAD4     13657       2   14846   14847   15096   15095                
CQUAD4     13658       2   14859   14845   14846   15095                
CQUAD4     13659       2   14860   14859   15095   15094                
CQUAD4     13660       2   14861   14860   15094   15097                
CQUAD4     13661       2   14995   14862   14861   15097                
CQUAD4     13662       2   15093   15090   15091   15098                
CQUAD4     13663       2   15097   15094   15093   15098                
CQUAD4     13664       2   15097   15098   15091   15092                
CQUAD4     13665       2   14996   14995   15097   15092                
CQUAD4     13666       2   15085   15086   15099   15100                
CQUAD4     13667       2   14849   14850   15085   15100                
CQUAD4     13668       2   15089   14848   14849   15100                
CQUAD4     13669       2   15090   15089   15100   15099                
CQUAD4     13670       2   15099   15086   15087   15101                
CQUAD4     13671       2   15091   15090   15099   15101                
CQUAD4     13672       2   15101   15087   15088   15102                
CQUAD4     13673       2   15092   15091   15101   15102                
$ ... 115 like lines cut
CTRIA3     13789       2   14582   13002   15171                        
CQUAD4     13790       2   14582   15171   15170   15212                
CQUAD4     13791       2   14581   14582   15212   15207                
CQUAD4     13792       2   15202   15158   15159   15216                
CQUAD4     13793       2   15203   15202   15216   15217                
CQUAD4     13794       2   15204   15203   15217   15218                
CQUAD4     13795       2   15205   15204   15218   15219                
CQUAD4     13796       2   15206   15205   15219   15220                
CTRIA3     13797       2   13006   13005   15207                        
CQUAD4     13798       2   13006   15207   15206   15220                
CQUAD4     13799       2   14578   13006   15220   15231                
CQUAD4     13800       2   15231   15220   15219   15230                
CQUAD4     13801       2   13008   14578   15231   15230                
CQUAD4     13802       2   15219   15218   15227   15233                
CQUAD4     13803       2   15233   15227   15228   15232                
CQUAD4     13804       2   15230   15219   15233   15232                
CQUAD4     13805       2   15232   15228   15229   15234                
CQUAD4     13806       2   13008   15230   15232   15234                
CQUAD4     13807       2   14576   13008   15234   15229                
CQUAD4     13808       2   15227   15218   15217   15224                
CQUAD4     13809       2   15228   15227   15224   15225                
CQUAD4     13810       2   15229   15228   15225   15226                
CQUAD4     13811       2   14575   14576   15229   15226                
CQUAD4     13812       2   15224   15217   15216   15221                
CQUAD4     13813       2   15225   15224   15221   15222                
CQUAD4     13814       2   15226   15225   15222   15223                
CQUAD4     13815       2   14574   14575   15226   15223                
CQUAD4     13816       2   15221   15216   15159   15160                
CQUAD4     13817       2   15222   15221   15160   15161                
$ ... 3437 like lines cut
CTRIA3     17255       2   13179   14751   18431                        
CQUAD4     17256       2   13179   18431   18430   18508                
CQUAD4     17257       2   18505   18500   18501   18509                
CQUAD4     17258       2   18506   18505   18509   18510                
CQUAD4     17259       2   18510   18511   18512   18514                
CQUAD4     17260       2   18506   18510   18514   18515                
CQUAD4     17261       2   18515   18514   18512   18513                
CQUAD4     17262       2   18507   18506   18515   18513                
CQUAD4     17263       2   18508   18507   18513   18516                
CQUAD4     17264       2   14749   13179   18508   18516                
CQUAD4     17265       2   13181   14749   18516   18517                
CQUAD4     17266       2   18517   18516   18513   18512                
CQUAD4     17267       2   13181   18517   18512   18511                
CQUAD4     17268       2   18509   18501   18502   18518                
CQUAD4     17269       2   18510   18509   18518   18519                
CQUAD4     17270       2   18511   18510   18519   18520                
CQUAD4     17271       2   13182   13181   18511   18520                
CQUAD4     17272       2   18518   18502   18503   18523                
CQUAD4     17273       2   18523   18503   18521   18522                
CQUAD4     17274       2   18519   18518   18523   18522                
CQUAD4     17275       2   14746   13182   18520   18524                
$ ... 65 like lines cut
CTRIA3     17341       2   13192   14738   18420                        
CQUAD4     17342       2   18584   18585   18588   18589                
CQUAD4     17343       2   18583   18584   18589   18590                
CQUAD4     17344       2   18578   18579   18583   18590                
CQUAD4     17345       2   18577   18578   18590   18591                
CQUAD4     17346       2   18573   18574   18577   18591                
CQUAD4     17347       2   18572   18573   18591   18592                
CQUAD4     17348       2   18592   18591   18590   18589                
CQUAD4     17349       2   18571   18572   18592   18589                
CQUAD4     17350       2   18570   18571   18589   18588                
CQUAD4     17351       2   18569   18570   18588   18593                
CQUAD4     17352       2   18568   18569   18593   18594                
CQUAD4     17353       2   18418   18417   18568   18594                
CQUAD4     17354       2   18593   18588   18585   18586                
CQUAD4     17355       2   18594   18593   18586   18587                
CQUAD4     17356       2   18419   18418   18594   18587                
CQUAD4     17357       2   18585   18584   18595   18598                
CQUAD4     17358       2   18586   18585   18598   18599                
CQUAD4     17359       2   18587   18586   18599   18600                
CQUAD4     17360       2   18420   18419   18587   18600                
CQUAD4     17361       2   14736   13192   18420   18600                
$ ... 24 like lines cut
CTRIA3     17386       2   17866   13203   13202                        
CQUAD4     17387       2   17867   17866   13201   18613                
CQUAD4     17388       2   17868   17867   18613   18612                
CQUAD4     17389       2   18577   18574   18575   18616                
CQUAD4     17390       2   18578   18577   18616   18617                
CQUAD4     17391       2   18617   18618   18619   18620                
CQUAD4     17392       2   18579   18578   18617   18620                
CQUAD4     17393       2   18580   18579   18620   18619                
CQUAD4     17394       2   18610   18581   18580   18619                
CQUAD4     17395       2   18611   18610   18619   18618                
CQUAD4     17396       2   18616   18575   18576   18621                
CQUAD4     17397       2   18617   18616   18621   18622                
CQUAD4     17398       2   18618   18617   18622   18623                
CQUAD4     17399       2   18612   18611   18618   18623                
CQUAD4     17400       2   17869   17868   18612   18623                
CQUAD4     17401       2   17870   17869   18623   18622                
CQUAD4     17402       2   17871   17870   18622   18621                
CQUAD4     17403       2   17872   17871   18621   18576                
CQUAD4     17404       2   18632   18633   18639   18643                
CQUAD4     17405       2   18627   18628   18632   18643                
CQUAD4     17406       2   18643   18639   18640   18642                
$ ... 329 like lines cut
CTRIA3     17736       2   14421   13163   18903                        
CQUAD4     17737       2   18898   18831   18830   18890                
CQUAD4     17738       2   18899   18898   18890   18891                
CQUAD4     17739       2   18900   18899   18891   18892                
CQUAD4     17740       2   18929   18930   18931   18932                
CQUAD4     17741       2   18892   18893   18929   18932                
CQUAD4     17742       2   18900   18892   18932   18931                
CQUAD4     17743       2   18901   18900   18931   18930                
CQUAD4     17744       2   18895   18896   18933   18934                
CQUAD4     17745       2   18894   18895   18934   18935                
CQUAD4     17746       2   18929   18893   18894   18935                
CQUAD4     17747       2   18930   18929   18935   18936                
CQUAD4     17748       2   18902   18901   18930   18936                
CQUAD4     17749       2   18902   18936   18935   18934                
CQUAD4     17750       2   18903   18902   18934   18933                
CQUAD4     17751       2   14420   14421   18903   18933                
CQUAD4     17752       2   14420   18933   18896   18897                
CTRIA3     17753       2   13167   14419   18897                        
CQUAD4     17754       2   18937   18938   18940   18944                
CQUAD4     17755       2   18393   18392   18937   18944                
CQUAD4     17756       2   18944   18940   18941   18943                
CQUAD4     17757       2   18394   18393   18944   18943                
CQUAD4     17758       2   18395   18394   18943   18945                
CQUAD4     17759       2   18827   18396   18395   18945                
CQUAD4     17760       2   18945   18943   18941   18942                
CQUAD4     17761       2   18828   18827   18945   18942                
CQUAD4     17762       2   18829   18828   18942   18947                
CQUAD4     17763       2   18890   18830   18829   18947                
CQUAD4     17764       2   18947   18942   18941   18946                
CQUAD4     17765       2   18891   18890   18947   18946                
CQUAD4     17766       2   18940   18938   18939   18948                
CQUAD4     17767       2   18946   18941   18940   18948                
CQUAD4     17768       2   18892   18891   18946   18948                
CQUAD4     17769       2   18893   18892   18948   18939                
CQUAD4     17770       2   18937   18392   18391   18953                
CQUAD4     17771       2   18938   18937   18953   18954                
CQUAD4     17772       2   18939   18938   18954   18955                
CQUAD4     17773       2   18894   18893   18939   18955                
$ ... 22 like lines cut
CTRIA3     17796       2   14619   14620   14812                        
CTRIA3     17797       2   14608   13320   14870                        
CTRIA3     17798       2   13334   13333   15005                        
CTRIA3     17799       2   13002   14584   15171                        
CTRIA3     17800       2   13005   14581   15207                        
CTRIA3     17801       2   14751   14752   18431                        
CTRIA3     17802       2   14738   13190   18420                        
CTRIA3     17803       2   17866   13202   13201                        
CTRIA3     17804       2   13163   13162   18903                        
CTRIA3     17805       2   14419   14420   18897                        
ENDDATA
