ID C:\Program_Files\Abaqus_j,FEMAP
SOL SESTATICS
TIME 10000
CEND
  ECHO = NONE
  DISPLACEMENT(PLOT) = ALL
  SPCFORCE(PLOT) = ALL
  OLOAD(PLOT) = ALL
  FORCE(PLOT,CORNER) = ALL
  STRESS(PLOT,CORNER) = ALL
BEGIN BULK
$ ***************************************************************************
$   Written by : FEMAP
$   Version    : 7.00
$   Translator : MSC/NASTRAN
$   From Model : C:\Program_Files\Abaqus_job\Heat_clayer.MOD
$   Date       : Wed Feb 17 16:47:27 2010
$ ***************************************************************************
$
PARAM,POST,-1
PARAM,OGEOM,NO
PARAM,AUTOSPC,YES
PARAM,GRDPNT,0
CORD2C         1       0      0.      0.      0.      0.      0.      1.+FEMAPC1
+FEMAPC1      1.      0.      1.
CORD2S         2       0      0.      0.      0.      0.      0.      1.+FEMAPC2
+FEMAPC2      1.      0.      1.
$ FEMAP Property 1 : Matrix
PSHELL         1       1      0.       1               1              0.
$ FEMAP Property 2 : Inclusion
PSHELL         2       1      0.       1               1              0.
$ FEMAP Property 3 : Clayer
PSHELL         3       1      0.       1               1              0.
$ FEMAP Material 1 : Untitled
$ FEMAP Load Set 111 : Inclusion nBSOURCE 0.5 0.5 0.3 0.3 0.
MAT1           1                              0.      0.      0.        
GRID           1       0 0.55221 0.89658      0.       0        
GRID           2       0     0.7 0.84641      0.       0        
GRID           3       0 0.81904 0.81904      0.       0        
GRID           4       0 0.92761 0.92761      0.       0        
GRID           5       0 0.96381 0.96381      0.       0        
GRID           6       0      1.      1.      0.       0        
GRID           7       0    0.95      1.      0.       0        
GRID           8       0     0.9      1.      0.       0        
GRID           9       0    0.85      1.      0.       0        
GRID          10       0     0.8      1.      0.       0        
GRID          11       0    0.75      1.      0.       0        
GRID          12       0     0.7      1.      0.       0        
GRID          13       0    0.65      1.      0.       0        
GRID          14       0     0.6      1.      0.       0        
GRID          15       0    0.55      1.      0.       0        
GRID          16       0     0.5      1.      0.       0        
GRID          17       0     0.5    0.95      0.       0        
GRID          18       0    0.74 0.94698      0.       0        
GRID          19       0  0.7228 0.89459      0.       0        
GRID          20       0 0.79698 0.93503      0.       0        
$ ... 501 like lines cut
CQUAD4         1       1      10      11      18      20                
CQUAD4         2       1      20      21      22      24                
CQUAD4         3       1      10      20      24      25                
CQUAD4         4       1      25      24      22      23                
CQUAD4         5       1       9      10      25      23                
CQUAD4         6       1       8       9      23      26                
CQUAD4         7       1       5       6       7      27                
CQUAD4         8       1      27       7       8      26                
CQUAD4         9       1       4       5      27      26                
CQUAD4        10       1      26      23      22      28                
CQUAD4        11       1      36       4      26      28                
CQUAD4        12       1      36      28      22      21                
CQUAD4        13       1      37      36      21      30                
CQUAD4        14       1      30      21      20      29                
CQUAD4        15       1       3      37      30      29                
CQUAD4        16       1      69      38       3      29                
CQUAD4        17       1      29      20      18      19                
CQUAD4        18       1       2      69      29      19                
CQUAD4        19       1      18      11      12      32                
CQUAD4        20       1      19      18      32      33                
$ ... 42 like lines cut
CTRIA3        63       3      72       2      70                        
CQUAD4        64       3      72      70      71      75                
CQUAD4        65       3      92      91      72      75                
CQUAD4        66       3      75      71       1      74                
CQUAD4        67       3      67      92      75      74                
CQUAD4        68       3      74       1     259     330                
CQUAD4        69       3      88      67      74     330                
CQUAD4        70       3      79     172      80      85                
CQUAD4        71       3     116     115      79      85                
CQUAD4        72       3      85      80      81      86                
CQUAD4        73       3      78     116      85      86                
CTRIA3        74       3      86      81      39                        
CQUAD4        75       3      86      39      82      84                
CQUAD4        76       3      77      78      86      84                
CQUAD4        77       3      84      82      83      87                
CQUAD4        78       3     117      77      84      87                
CQUAD4        79       3      68      76     117      87                
CQUAD4        80       3      38      68      87      83                
CQUAD4        81       2      89     482     110      97                
CQUAD4        82       2      97     110     109      96                
CQUAD4        83       2     349      89      97      96                
CQUAD4        84       2      96     109     108      95                
CQUAD4        85       2     348     349      96      95                
CQUAD4        86       2      95     108     107      93                
CTRIA3        87       2      95      93      94                        
CQUAD4        88       2     347     348      95      94                
CQUAD4        89       2      90      91     100     102                
CQUAD4        90       2     106      76      90     102                
CQUAD4        91       2     102     100     101     103                
CQUAD4        92       2     107     106     102     103                
CQUAD4        93       2      93     107     103     101                
CQUAD4        94       2     100      91      92      98                
CQUAD4        95       2     101     100      98      99                
CQUAD4        96       2      94      93     101      99                
CQUAD4        97       2      99      98     104     105                
CQUAD4        98       2     347      94      99     105                
CQUAD4        99       2     346     347     105     104                
CQUAD4       100       2     104      98      92      67                
CQUAD4       101       2      88     346     104      67                
CQUAD4       102       2     110     482     111     121                
CQUAD4       103       2     121     111     112     120                
CQUAD4       104       2     109     110     121     120                
CQUAD4       105       2     113     242     118     122                
CQUAD4       106       2     120     112     113     122                
CQUAD4       107       2     108     109     120     122                
CQUAD4       108       2     108     122     118     119                
CTRIA3       109       2     107     108     119                        
CQUAD4       110       2     116      78     125     127                
CQUAD4       111       2     114     115     116     127                
CQUAD4       112       2     127     125     126     128                
CQUAD4       113       2     242     114     127     128                
CQUAD4       114       2     118     242     128     126                
CQUAD4       115       2     125      78      77     123                
CQUAD4       116       2     126     125     123     124                
CQUAD4       117       2     119     118     126     124                
CQUAD4       118       2     124     123     129     130                
CQUAD4       119       2     107     119     124     130                
CQUAD4       120       2     106     107     130     129                
CQUAD4       121       2     129     123      77     117                
CQUAD4       122       2      76     106     129     117                
CQUAD4       123       1     140     139     149     147                
CQUAD4       124       1     150     149     153     151                
CQUAD4       125       1     149     139     154     153                
CQUAD4       126       1     153     154     152     151                
CQUAD4       127       1     139     138     152     154                
CQUAD4       128       1     138     137     155     152                
CQUAD4       129       1     135     134     156     136                
$ ... 55 like lines cut
CTRIA3       185       3     205     210     206                        
CQUAD4       186       3     206     210     213     207                
CQUAD4       187       3     202     221     213     210                
CQUAD4       188       3     207     213     212     208                
CQUAD4       189       3     221     222     212     213                
CQUAD4       190       3     208     212     462     209                
CQUAD4       191       3     222     477     462     212                
CQUAD4       192       3     172      79     217     215                
CQUAD4       193       3     115     243     217      79                
CQUAD4       194       3     215     217     218     171                
CQUAD4       195       3     243     244     218     217                
CTRIA3       196       3     171     218     170                        
CQUAD4       197       3     170     218     216     169                
CQUAD4       198       3     244     214     216     218                
CQUAD4       199       3     169     216     219     168                
CQUAD4       200       3     214     245     219     216                
CQUAD4       201       3     236     204     219     245                
CQUAD4       202       3     204     167     168     219                
CQUAD4       203       2     482     481     227     241                
CQUAD4       204       2     241     227     226     240                
CQUAD4       205       2     481     480     226     227                
CQUAD4       206       2     240     226     225     239                
CQUAD4       207       2     480     479     225     226                
CQUAD4       208       2     239     225     223     238                
CTRIA3       209       2     223     225     224                        
CQUAD4       210       2     479     478     224     225                
CQUAD4       211       2     202     203     232     230                
CQUAD4       212       2     236     237     232     203                
CQUAD4       213       2     230     232     233     231                
CQUAD4       214       2     237     238     233     232                
CQUAD4       215       2     238     223     231     233                
CQUAD4       216       2     202     230     228     221                
CQUAD4       217       2     230     231     229     228                
CQUAD4       218       2     223     224     229     231                
CQUAD4       219       2     228     229     235     234                
CQUAD4       220       2     224     478     235     229                
CQUAD4       221       2     478     220     234     235                
CQUAD4       222       2     228     234     222     221                
CQUAD4       223       2     220     477     222     234                
CQUAD4       224       2     482     241     249     111                
CQUAD4       225       2     111     249     248     112                
CQUAD4       226       2     241     240     248     249                
CQUAD4       227       2     242     113     250     246                
CQUAD4       228       2     112     248     250     113                
CQUAD4       229       2     240     239     250     248                
CQUAD4       230       2     250     239     247     246                
CTRIA3       231       2     239     238     247                        
CQUAD4       232       2     244     243     255     253                
CQUAD4       233       2     115     114     255     243                
CQUAD4       234       2     253     255     256     254                
CQUAD4       235       2     114     242     256     255                
CQUAD4       236       2     242     246     254     256                
CQUAD4       237       2     244     253     251     214                
CQUAD4       238       2     253     254     252     251                
CQUAD4       239       2     246     247     252     254                
CQUAD4       240       2     251     252     258     257                
CQUAD4       241       2     247     238     258     252                
CQUAD4       242       2     238     237     257     258                
CQUAD4       243       2     251     257     245     214                
CQUAD4       244       2     237     236     245     257                
CQUAD4       245       1     269     268     276     274                
CQUAD4       246       1     277     276     280     278                
CQUAD4       247       1     276     268     281     280                
CQUAD4       248       1     280     281     279     278                
CQUAD4       249       1     268     267     279     281                
CQUAD4       250       1     267     266     282     279                
CQUAD4       251       1     264     263     283     265                
$ ... 55 like lines cut
CTRIA3       307       3     327     331     260                        
CQUAD4       308       3     260     331     334     328                
CQUAD4       309       3     324     351     334     331                
CQUAD4       310       3     328     334     333     329                
CQUAD4       311       3     351     323     333     334                
CQUAD4       312       3     329     333     330     259                
CQUAD4       313       3     323      88     330     333                
CQUAD4       314       3     470     469     343     295                
CQUAD4       315       3     505     337     343     469                
CQUAD4       316       3     295     343     344     338                
CQUAD4       317       3     337     374     344     343                
CTRIA3       318       3     338     344     339                        
CQUAD4       319       3     339     344     342     340                
CQUAD4       320       3     374     336     342     344                
CQUAD4       321       3     340     342     345     341                
CQUAD4       322       3     336     375     345     342                
CQUAD4       323       3     335     325     345     375                
CQUAD4       324       3     325     294     341     345                
CQUAD4       325       2     482      89     356     369                
CQUAD4       326       2     369     356     355     368                
CQUAD4       327       2      89     349     355     356                
CQUAD4       328       2     368     355     354     367                
CQUAD4       329       2     349     348     354     355                
CQUAD4       330       2     367     354     352     366                
CTRIA3       331       2     352     354     353                        
CQUAD4       332       2     348     347     353     354                
CQUAD4       333       2     324     350     361     359                
CQUAD4       334       2     335     365     361     350                
CQUAD4       335       2     359     361     362     360                
CQUAD4       336       2     365     366     362     361                
CQUAD4       337       2     366     352     360     362                
CQUAD4       338       2     324     359     357     351                
CQUAD4       339       2     359     360     358     357                
CQUAD4       340       2     352     353     358     360                
CQUAD4       341       2     357     358     364     363                
CQUAD4       342       2     353     347     364     358                
CQUAD4       343       2     347     346     363     364                
CQUAD4       344       2     357     363     323     351                
CQUAD4       345       2     346      88     323     363                
CQUAD4       346       2     482     369     379     504                
CQUAD4       347       2     504     379     378     370                
CQUAD4       348       2     369     368     378     379                
CQUAD4       349       2     372     371     380     376                
CQUAD4       350       2     370     378     380     371                
CQUAD4       351       2     368     367     380     378                
CQUAD4       352       2     380     367     377     376                
CTRIA3       353       2     367     366     377                        
CQUAD4       354       2     374     337     385     383                
CQUAD4       355       2     505     373     385     337                
CQUAD4       356       2     383     385     386     384                
CQUAD4       357       2     373     372     386     385                
CQUAD4       358       2     372     376     384     386                
CQUAD4       359       2     374     383     381     336                
CQUAD4       360       2     383     384     382     381                
CQUAD4       361       2     376     377     382     384                
CQUAD4       362       2     381     382     388     387                
CQUAD4       363       2     377     366     388     382                
CQUAD4       364       2     366     365     387     388                
CQUAD4       365       2     381     387     375     336                
CQUAD4       366       2     365     335     375     387                
CQUAD4       367       1     398     399     404     406                
CQUAD4       368       1     406     407     408     410                
CQUAD4       369       1     398     406     410     411                
CQUAD4       370       1     411     410     408     409                
CQUAD4       371       1     397     398     411     409                
CQUAD4       372       1     396     397     409     412                
CQUAD4       373       1     393     394     395     413                
$ ... 55 like lines cut
CTRIA3       429       3     463     459     460                        
CQUAD4       430       3     463     460     461     466                
CQUAD4       431       3     484     457     463     466                
CQUAD4       432       3     466     461     389     465                
CQUAD4       433       3     456     484     466     465                
CQUAD4       434       3     465     389     209     462                
CQUAD4       435       3     477     456     465     462                
CQUAD4       436       3     469     470     471     474                
CQUAD4       437       3     506     505     469     474                
CQUAD4       438       3     474     471     472     475                
CQUAD4       439       3     507     506     474     475                
CTRIA3       440       3     475     472     426                        
CQUAD4       441       3     475     426     425     473                
CQUAD4       442       3     508     507     475     473                
CQUAD4       443       3     473     425     424     476                
CQUAD4       444       3     468     508     473     476                
CQUAD4       445       3     458     498     468     476                
CQUAD4       446       3     467     458     476     424                
CQUAD4       447       2     481     482     503     489                
CQUAD4       448       2     489     503     502     488                
CQUAD4       449       2     480     481     489     488                
CQUAD4       450       2     488     502     501     487                
CQUAD4       451       2     479     480     488     487                
CQUAD4       452       2     487     501     500     485                
CTRIA3       453       2     487     485     486                        
CQUAD4       454       2     478     479     487     486                
CQUAD4       455       2     483     457     492     494                
CQUAD4       456       2     499     498     483     494                
CQUAD4       457       2     494     492     493     495                
CQUAD4       458       2     500     499     494     495                
CQUAD4       459       2     485     500     495     493                
CQUAD4       460       2     492     457     484     490                
CQUAD4       461       2     493     492     490     491                
CQUAD4       462       2     486     485     493     491                
CQUAD4       463       2     491     490     496     497                
CQUAD4       464       2     478     486     491     497                
CQUAD4       465       2     220     478     497     496                
CQUAD4       466       2     496     490     484     456                
CQUAD4       467       2     477     220     496     456                
CQUAD4       468       2     503     482     504     512                
CQUAD4       469       2     512     504     370     511                
CQUAD4       470       2     502     503     512     511                
CQUAD4       471       2     371     372     509     513                
CQUAD4       472       2     511     370     371     513                
CQUAD4       473       2     501     502     511     513                
CQUAD4       474       2     501     513     509     510                
CTRIA3       475       2     500     501     510                        
CQUAD4       476       2     506     507     516     518                
CQUAD4       477       2     373     505     506     518                
CQUAD4       478       2     518     516     517     519                
CQUAD4       479       2     372     373     518     519                
CQUAD4       480       2     509     372     519     517                
CQUAD4       481       2     516     507     508     514                
CQUAD4       482       2     517     516     514     515                
CQUAD4       483       2     510     509     517     515                
CQUAD4       484       2     515     514     520     521                
CQUAD4       485       2     500     510     515     521                
CQUAD4       486       2     499     500     521     520                
CQUAD4       487       2     520     514     508     468                
CQUAD4       488       2     498     499     520     468                
ENDDATA
