ID C:\Program_Files\Abaqus_j,FEMAP
SOL SESTATICS
TIME 10000
CEND
  ECHO = NONE
  DISPLACEMENT(PLOT) = ALL
  SPCFORCE(PLOT) = ALL
  OLOAD(PLOT) = ALL
  FORCE(PLOT,CORNER) = ALL
  STRESS(PLOT,CORNER) = ALL
BEGIN BULK
$ ***************************************************************************
$   Written by : FEMAP
$   Version    : 7.00
$   Translator : MSC/NASTRAN
$   From Model : C:\Program_Files\Abaqus_job\Heat2clayer.MOD
$   Date       : Sun Feb 28 20:56:44 2010
$ ***************************************************************************
$
PARAM,POST,-1
PARAM,OGEOM,NO
PARAM,AUTOSPC,YES
PARAM,GRDPNT,0
CORD2C         1       0      0.      0.      0.      0.      0.      1.+FEMAPC1
+FEMAPC1      1.      0.      1.
CORD2S         2       0      0.      0.      0.      0.      0.      1.+FEMAPC2
+FEMAPC2      1.      0.      1.
$ FEMAP Property 1 : Matrix
PSHELL         1       1      0.       1               1              0.
$ FEMAP Property 2 : Inclusion
PSHELL         2       1      0.       1               1              0.
$ FEMAP Property 3 : Clayer
PSHELL         3       1      0.       1               1              0.
$ FEMAP Material 1 : Untitled
MAT1           1                              0.      0.      0.        
GRID           1       0      2.     1.2      0.       0        
GRID           2       0 1.96476 1.16476      0.       0        
GRID           3       0 1.89428 1.09428      0.       0        
GRID           4       0 1.85904 1.05904      0.       0        
GRID           5       0 1.75332 0.95332      0.       0        
GRID          11       0 1.79658 0.65221      0.       0        
GRID          14       0     1.9     0.6      0.       0        
GRID          16       0      2.     0.6      0.       0        
GRID          17       0      2.    0.65      0.       0        
GRID          18       0      2.     0.7      0.       0        
GRID          19       0      2.    0.75      0.       0        
GRID          20       0      2.     0.8      0.       0        
GRID          21       0      2.    0.85      0.       0        
GRID          22       0      2.     0.9      0.       0        
GRID          23       0      2.    0.95      0.       0        
GRID          24       0      2.      1.      0.       0        
GRID          25       0      2.    1.05      0.       0        
GRID          26       0      2.     1.1      0.       0        
GRID          27       0      2.    1.15      0.       0        
GRID          28       0 1.95015 0.88003      0.       0        
$ ... 1181 like lines cut
CQUAD4         1       1     372      16      17      35                
CQUAD4         2       1      14     372      35      36                
CQUAD4         3       1     370      14      36      37                
CQUAD4         4       1      11     665     370      37                
CTRIA3         5       1      18      19      32                        
CQUAD4         6       1      35      17      18      32                
CQUAD4         7       1      36      35      32      33                
CQUAD4         8       1      37      36      33      34                
CQUAD4         9       1     310      11      37      34                
CQUAD4        10       1      28      29      38      41                
CQUAD4        11       1      21      22      28      41                
CQUAD4        12       1      41      38      39      42                
CQUAD4        13       1      20      21      41      42                
CQUAD4        14       1      42      39      40      43                
CQUAD4        15       1      19      20      42      43                
CQUAD4        16       1      32      19      43      40                
CQUAD4        17       1      40      39      44      47                
CQUAD4        18       1      33      32      40      47                
CQUAD4        19       1      47      44      45      48                
CQUAD4        20       1      34      33      47      48                
CQUAD4        21       1      34      48      45      46                
CQUAD4        22       1     311     310      34      46                
CQUAD4        23       1      38      29      30      49                
CQUAD4        24       1      44      39      38      49                
CQUAD4        25       1      45      44      49      50                
$ ... 94 like lines cut
CTRIA3       120       1     128      94      95                        
CQUAD4       121       1     128      95      96     144                
CQUAD4       122       1     129     128     144     145                
CQUAD4       123       1     130     129     145     146                
CQUAD4       124       1      77     325     130     146                
CQUAD4       125       1     144      96     150      97                
CQUAD4       126       1     145     144      97     149                
CQUAD4       127       1     146     145     149     148                
CQUAD4       128       1     333      77     146     148                
CQUAD4       129       1     333     148     170     334                
CQUAD4       130       1     148     149     171     170                
CQUAD4       131       1     149      97     172     171                
CQUAD4       132       1      97     150     151     172                
CQUAD4       133       1     334     170     173     168                
CQUAD4       134       1     170     171     174     173                
CQUAD4       135       1     171     172     175     174                
CQUAD4       136       1     172     151     152     175                
CQUAD4       137       1     168     173     176     336                
CQUAD4       138       1     173     174     177     176                
CQUAD4       139       1     174     175     178     177                
CQUAD4       140       1     175     152     153     178                
$ ... 37 like lines cut
CTRIA3       178       2     205     201     303                        
CQUAD4       179       2     206     205     303     302                
CQUAD4       180       2     301     220     206     302                
CQUAD4       181       2     239     193     192     230                
CQUAD4       182       2     230     192     191     229                
CQUAD4       183       2     217     239     230     229                
CQUAD4       184       2     229     191     218     228                
CQUAD4       185       2     240     217     229     228                
CQUAD4       186       2     228     218     219     226                
CTRIA3       187       2     228     226     227                        
CQUAD4       188       2     241     240     228     227                
CQUAD4       189       2     321     320     231     233                
CQUAD4       190       2     220     301     321     233                
CQUAD4       191       2     233     231     232     234                
CQUAD4       192       2     219     220     233     234                
CQUAD4       193       2     226     219     234     232                
CQUAD4       194       2     231     320     224     235                
CQUAD4       195       2     232     231     235     236                
CQUAD4       196       2     227     226     232     236                
CQUAD4       197       2     236     235     237     238                
CQUAD4       198       2     241     227     236     238                
CQUAD4       199       2     242     241     238     237                
CQUAD4       200       2     237     235     224     318                
CQUAD4       201       2     216     242     237     318                
CQUAD4       202       2     193     239     264     263                
CQUAD4       203       2     239     217     265     264                
CQUAD4       204       2     217     240     266     265                
CQUAD4       205       2     240     241     267     266                
CQUAD4       206       2     241     242     268     267                
CQUAD4       207       2     242     216     243     268                
$ ... 46 like lines cut
CTRIA3       254       3     316     310     311                        
CQUAD4       255       3     316     311     312     314                
CQUAD4       256       3     303     201     316     314                
CQUAD4       257       3     314     312     313     317                
CQUAD4       258       3     302     303     314     317                
CQUAD4       259       3     300     301     302     317                
CQUAD4       260       3     299     300     317     313                
CQUAD4       261       3     300     299     322     328                
CQUAD4       262       3     321     301     300     328                
CQUAD4       263       3     328     322      80     327                
CQUAD4       264       3     320     321     328     327                
CTRIA3       265       3     324     325     330                        
CQUAD4       266       3     327      80     324     330                
CQUAD4       267       3     224     320     327     330                
CQUAD4       268       3     330     325      77     329                
CQUAD4       269       3     318     224     330     329                
CQUAD4       270       3     329      77     333     332                
CQUAD4       271       3     216     318     329     332                
CQUAD4       272       3     216     332     351     243                
CQUAD4       273       3     332     333     334     351                
CQUAD4       274       3     243     351     352     349                
CQUAD4       275       3     351     334     168     352                
CQUAD4       276       3     349     352     353     348                
CQUAD4       277       3     352     168     336     353                
CQUAD4       278       3     348     353     354     246                
CQUAD4       279       3     353     336     337     354                
CQUAD4       280       3     246     354     355     247                
CQUAD4       281       3     354     337     338     355                
CQUAD4       282       3     247     355     356     248                
CQUAD4       283       3     355     338     164     356                
CQUAD4       284       3     248     356     357     344                
CQUAD4       285       3     356     164     163     357                
$ ... 6 like lines cut
CTRIA3       292       1     376     375     389                        
CQUAD4       293       1     374     392     389     375                
CQUAD4       294       1     392     393     390     389                
CQUAD4       295       1     393     394     391     390                
CQUAD4       296       1     666     367     391     394                
CQUAD4       297       1     386     385     398     395                
CQUAD4       298       1     379     378     398     385                
CQUAD4       299       1     395     398     399     396                
CQUAD4       300       1     378     377     399     398                
CQUAD4       301       1     396     399     400     397                
CQUAD4       302       1     377     376     400     399                
CQUAD4       303       1     376     389     397     400                
CQUAD4       304       1     396     397     404     401                
CQUAD4       305       1     389     390     404     397                
CQUAD4       306       1     401     404     405     402                
CQUAD4       307       1     390     391     405     404                
CQUAD4       308       1     405     391     403     402                
CQUAD4       309       1     367     668     403     391                
CQUAD4       310       1     386     395     406     387                
CQUAD4       311       1     396     401     406     395                
CQUAD4       312       1     401     402     407     406                
$ ... 94 like lines cut
CTRIA3       407       1     451     485     452                        
CQUAD4       408       1     452     485     501     453                
CQUAD4       409       1     485     486     502     501                
CQUAD4       410       1     486     487     503     502                
CQUAD4       411       1     435     683     503     487                
CQUAD4       412       1     453     501     454     507                
CQUAD4       413       1     501     502     506     454                
CQUAD4       414       1     502     503     505     506                
CQUAD4       415       1     683     690     505     503                
CQUAD4       416       1     505     690     526     527                
CQUAD4       417       1     506     505     527     528                
CQUAD4       418       1     454     506     528     529                
CQUAD4       419       1     507     454     529     508                
CQUAD4       420       1     527     526     525     530                
CQUAD4       421       1     528     527     530     531                
CQUAD4       422       1     529     528     531     532                
CQUAD4       423       1     508     529     532     509                
CQUAD4       424       1     530     525     524     533                
CQUAD4       425       1     531     530     533     534                
CQUAD4       426       1     532     531     534     535                
CQUAD4       427       1     509     532     535     510                
$ ... 37 like lines cut
CTRIA3       465       2     558     562     660                        
CQUAD4       466       2     562     563     659     660                
CQUAD4       467       2     577     658     659     563                
CQUAD4       468       2     193     596     587     549                
CQUAD4       469       2     549     587     586     548                
CQUAD4       470       2     596     574     586     587                
CQUAD4       471       2     548     586     585     575                
CQUAD4       472       2     574     597     585     586                
CQUAD4       473       2     575     585     583     576                
CTRIA3       474       2     583     585     584                        
CQUAD4       475       2     597     598     584     585                
CQUAD4       476       2     580     678     590     588                
CQUAD4       477       2     658     577     590     678                
CQUAD4       478       2     588     590     591     589                
CQUAD4       479       2     577     576     591     590                
CQUAD4       480       2     576     583     589     591                
CQUAD4       481       2     580     588     592     676                
CQUAD4       482       2     588     589     593     592                
CQUAD4       483       2     583     584     593     589                
CQUAD4       484       2     592     593     595     594                
CQUAD4       485       2     584     598     595     593                
CQUAD4       486       2     598     599     594     595                
CQUAD4       487       2     592     594     675     676                
CQUAD4       488       2     599     688     675     594                
CQUAD4       489       2     596     193     263     621                
CQUAD4       490       2     574     596     621     622                
CQUAD4       491       2     597     574     622     623                
CQUAD4       492       2     598     597     623     624                
CQUAD4       493       2     599     598     624     625                
CQUAD4       494       2     688     599     625     707                
$ ... 46 like lines cut
CTRIA3       541       3     367     673     668                        
CQUAD4       542       3     668     673     671     365                
CQUAD4       543       3     558     660     671     673                
CQUAD4       544       3     365     671     674     364                
CQUAD4       545       3     660     659     674     671                
CQUAD4       546       3     658     657     674     659                
CQUAD4       547       3     657     656     364     674                
CQUAD4       548       3     656     657     685     679                
CQUAD4       549       3     658     678     685     657                
CQUAD4       550       3     679     685     684     437                
CQUAD4       551       3     678     580     684     685                
CTRIA3       552       3     435     681     687                        
CQUAD4       553       3     437     684     687     681                
CQUAD4       554       3     580     676     687     684                
CQUAD4       555       3     435     687     686     683                
CQUAD4       556       3     676     675     686     687                
CQUAD4       557       3     683     686     689     690                
CQUAD4       558       3     675     688     689     686                
CQUAD4       559       3     689     688     707     708                
CQUAD4       560       3     690     689     708     526                
CQUAD4       561       3     708     707     706     709                
CQUAD4       562       3     526     708     709     525                
CQUAD4       563       3     709     706     705     710                
CQUAD4       564       3     525     709     710     524                
CQUAD4       565       3     710     705     704     711                
CQUAD4       566       3     524     710     711     694                
CQUAD4       567       3     711     704     703     712                
CQUAD4       568       3     694     711     712     522                
CQUAD4       569       3     712     703     702     713                
CQUAD4       570       3     522     712     713     521                
CQUAD4       571       3     713     702     701     714                
CQUAD4       572       3     521     713     714     520                
$ ... 6 like lines cut
CTRIA3       579       1     733     732     746                        
CQUAD4       580       1     731     749     746     732                
CQUAD4       581       1     749     750     747     746                
CQUAD4       582       1     750     751     748     747                
CQUAD4       583       1    1023    1024     748     751                
CQUAD4       584       1     743     742     755     752                
CQUAD4       585       1     736     735     755     742                
CQUAD4       586       1     752     755     756     753                
CQUAD4       587       1     735     734     756     755                
CQUAD4       588       1     753     756     757     754                
CQUAD4       589       1     734     733     757     756                
CQUAD4       590       1     733     746     754     757                
CQUAD4       591       1     753     754     761     758                
CQUAD4       592       1     746     747     761     754                
CQUAD4       593       1     758     761     762     759                
CQUAD4       594       1     747     748     762     761                
CQUAD4       595       1     762     748     760     759                
CQUAD4       596       1    1024    1025     760     748                
CQUAD4       597       1     743     752     763     744                
CQUAD4       598       1     753     758     763     752                
CQUAD4       599       1     758     759     764     763                
$ ... 94 like lines cut
CTRIA3       694       1     808     842     809                        
CQUAD4       695       1     809     842     858     810                
CQUAD4       696       1     842     843     859     858                
CQUAD4       697       1     843     844     860     859                
CQUAD4       698       1     792    1040     860     844                
CQUAD4       699       1     810     858     811     864                
CQUAD4       700       1     858     859     863     811                
CQUAD4       701       1     859     860     862     863                
CQUAD4       702       1    1040    1047     862     860                
CQUAD4       703       1     862    1047    1048     884                
CQUAD4       704       1     863     862     884     885                
CQUAD4       705       1     811     863     885     886                
CQUAD4       706       1     864     811     886     865                
CQUAD4       707       1     884    1048    1049     887                
CQUAD4       708       1     885     884     887     888                
CQUAD4       709       1     886     885     888     889                
CQUAD4       710       1     865     886     889     866                
CQUAD4       711       1     887    1049     881     890                
CQUAD4       712       1     888     887     890     891                
CQUAD4       713       1     889     888     891     892                
CQUAD4       714       1     866     889     892     867                
$ ... 37 like lines cut
CTRIA3       752       2     915     919     916                        
CQUAD4       753       2     919     920     917     916                
CQUAD4       754       2     934    1015     917     920                
CQUAD4       755       2     907     953     944     906                
CQUAD4       756       2     906     944     943     905                
CQUAD4       757       2     953     931     943     944                
CQUAD4       758       2     905     943     942     932                
CQUAD4       759       2     931     954     942     943                
CQUAD4       760       2     932     942     940     933                
CTRIA3       761       2     940     942     941                        
CQUAD4       762       2     954     955     941     942                
CQUAD4       763       2     937     936     947     945                
CQUAD4       764       2    1015     934     947     936                
CQUAD4       765       2     945     947     948     946                
CQUAD4       766       2     934     933     948     947                
CQUAD4       767       2     933     940     946     948                
CQUAD4       768       2     937     945     949    1033                
CQUAD4       769       2     945     946     950     949                
CQUAD4       770       2     940     941     950     946                
CQUAD4       771       2     949     950     952     951                
CQUAD4       772       2     941     955     952     950                
CQUAD4       773       2     955     956     951     952                
CQUAD4       774       2     949     951    1032    1033                
CQUAD4       775       2     956    1045    1032     951                
CQUAD4       776       2     953     907    1334     978                
CQUAD4       777       2     931     953     978     979                
CQUAD4       778       2     954     931     979     980                
CQUAD4       779       2     955     954     980     981                
CQUAD4       780       2     956     955     981     982                
CQUAD4       781       2    1045     956     982     957                
$ ... 46 like lines cut
CTRIA3       828       3    1024    1030    1025                        
CQUAD4       829       3    1025    1030    1028     722                
CQUAD4       830       3     915     916    1028    1030                
CQUAD4       831       3     722    1028    1031    1027                
CQUAD4       832       3     916     917    1031    1028                
CQUAD4       833       3    1015    1014    1031     917                
CQUAD4       834       3    1014    1013    1027    1031                
CQUAD4       835       3    1013    1014    1042     795                
CQUAD4       836       3    1015     936    1042    1014                
CQUAD4       837       3     795    1042    1041     794                
CQUAD4       838       3     936     937    1041    1042                
CTRIA3       839       3     792     793    1044                        
CQUAD4       840       3     794    1041    1044     793                
CQUAD4       841       3     937    1033    1044    1041                
CQUAD4       842       3     792    1044    1043    1040                
CQUAD4       843       3    1033    1032    1043    1044                
CQUAD4       844       3    1040    1043    1046    1047                
CQUAD4       845       3    1032    1045    1046    1043                
CQUAD4       846       3    1046    1045     957    1065                
CQUAD4       847       3    1047    1046    1065    1048                
CQUAD4       848       3    1065     957     958    1066                
CQUAD4       849       3    1048    1065    1066    1049                
CQUAD4       850       3    1066     958    1062    1067                
CQUAD4       851       3    1049    1066    1067     881                
CQUAD4       852       3    1067    1062     960    1068                
CQUAD4       853       3     881    1067    1068     880                
CQUAD4       854       3    1068     960    1060    1069                
CQUAD4       855       3     880    1068    1069    1052                
CQUAD4       856       3    1069    1060     962    1070                
CQUAD4       857       3    1052    1069    1070     878                
CQUAD4       858       3    1070     962     963    1071                
CQUAD4       859       3     878    1070    1071     877                
$ ... 6 like lines cut
CTRIA3       866       1    1089    1090    1103                        
CQUAD4       867       1    1106    1088    1089    1103                
CQUAD4       868       1    1107    1106    1103    1104                
CQUAD4       869       1    1108    1107    1104    1105                
CQUAD4       870       1    1381    1380    1108    1105                
CQUAD4       871       1    1099    1100    1109    1112                
CQUAD4       872       1    1092    1093    1099    1112                
CQUAD4       873       1    1112    1109    1110    1113                
CQUAD4       874       1    1091    1092    1112    1113                
CQUAD4       875       1    1113    1110    1111    1114                
CQUAD4       876       1    1090    1091    1113    1114                
CQUAD4       877       1    1103    1090    1114    1111                
CQUAD4       878       1    1111    1110    1115    1118                
CQUAD4       879       1    1104    1103    1111    1118                
CQUAD4       880       1    1118    1115    1116    1119                
CQUAD4       881       1    1105    1104    1118    1119                
CQUAD4       882       1    1105    1119    1116    1117                
CQUAD4       883       1    1080    1381    1105    1117                
CQUAD4       884       1    1109    1100    1101    1120                
CQUAD4       885       1    1115    1110    1109    1120                
CQUAD4       886       1    1116    1115    1120    1121                
$ ... 94 like lines cut
CTRIA3       981       1    1199    1165    1166                        
CQUAD4       982       1    1199    1166    1167    1215                
CQUAD4       983       1    1200    1199    1215    1216                
CQUAD4       984       1    1201    1200    1216    1217                
CQUAD4       985       1    1397    1396    1201    1217                
CQUAD4       986       1    1215    1167    1221    1168                
CQUAD4       987       1    1216    1215    1168    1220                
CQUAD4       988       1    1217    1216    1220    1219                
CQUAD4       989       1    1404    1397    1217    1219                
CQUAD4       990       1    1404    1219    1241    1240                
CQUAD4       991       1    1219    1220    1242    1241                
CQUAD4       992       1    1220    1168    1243    1242                
CQUAD4       993       1    1168    1221    1222    1243                
CQUAD4       994       1    1240    1241    1244    1239                
CQUAD4       995       1    1241    1242    1245    1244                
CQUAD4       996       1    1242    1243    1246    1245                
CQUAD4       997       1    1243    1222    1223    1246                
CQUAD4       998       1    1239    1244    1247    1238                
CQUAD4       999       1    1244    1245    1248    1247                
CQUAD4      1000       1    1245    1246    1249    1248                
CQUAD4      1001       1    1246    1223    1224    1249                
$ ... 37 like lines cut
CTRIA3      1039       2    1276    1375    1273                        
CQUAD4      1040       2    1277    1276    1273    1373                
CQUAD4      1041       2    1372    1291    1277    1373                
CQUAD4      1042       2    1310     907    1263    1301                
CQUAD4      1043       2    1301    1263    1262    1300                
CQUAD4      1044       2    1288    1310    1301    1300                
CQUAD4      1045       2    1300    1262    1289    1299                
CQUAD4      1046       2    1311    1288    1300    1299                
CQUAD4      1047       2    1299    1289    1290    1297                
CTRIA3      1048       2    1299    1297    1298                        
CQUAD4      1049       2    1312    1311    1299    1298                
CQUAD4      1050       2    1293    1294    1302    1304                
CQUAD4      1051       2    1291    1372    1293    1304                
CQUAD4      1052       2    1304    1302    1303    1305                
CQUAD4      1053       2    1290    1291    1304    1305                
CQUAD4      1054       2    1297    1290    1305    1303                
CQUAD4      1055       2    1302    1294    1295    1306                
CQUAD4      1056       2    1303    1302    1306    1307                
CQUAD4      1057       2    1298    1297    1303    1307                
CQUAD4      1058       2    1307    1306    1308    1309                
CQUAD4      1059       2    1312    1298    1307    1309                
CQUAD4      1060       2    1313    1312    1309    1308                
CQUAD4      1061       2    1308    1306    1295    1296                
CQUAD4      1062       2    1287    1313    1308    1296                
CQUAD4      1063       2     907    1310    1335    1334                
CQUAD4      1064       2    1310    1288    1336    1335                
CQUAD4      1065       2    1288    1311    1337    1336                
CQUAD4      1066       2    1311    1312    1338    1337                
CQUAD4      1067       2    1312    1313    1339    1338                
CQUAD4      1068       2    1313    1287    1421    1339                
$ ... 46 like lines cut
CTRIA3      1115       3    1387    1381    1080                        
CQUAD4      1116       3    1387    1080    1383    1385                
CQUAD4      1117       3    1273    1375    1387    1385                
CQUAD4      1118       3    1385    1383    1078    1388                
CQUAD4      1119       3    1373    1273    1385    1388                
CQUAD4      1120       3    1371    1372    1373    1388                
CQUAD4      1121       3    1370    1371    1388    1078                
CQUAD4      1122       3    1371    1370    1152    1399                
CQUAD4      1123       3    1293    1372    1371    1399                
CQUAD4      1124       3    1399    1152    1394    1398                
CQUAD4      1125       3    1294    1293    1399    1398                
CTRIA3      1126       3    1395    1396    1401                        
CQUAD4      1127       3    1398    1394    1395    1401                
CQUAD4      1128       3    1295    1294    1398    1401                
CQUAD4      1129       3    1401    1396    1397    1400                
CQUAD4      1130       3    1296    1295    1401    1400                
CQUAD4      1131       3    1400    1397    1404    1403                
CQUAD4      1132       3    1287    1296    1400    1403                
CQUAD4      1133       3    1287    1403    1422    1421                
CQUAD4      1134       3    1403    1404    1240    1422                
CQUAD4      1135       3    1421    1422    1423    1420                
CQUAD4      1136       3    1422    1240    1239    1423                
CQUAD4      1137       3    1420    1423    1424    1316                
CQUAD4      1138       3    1423    1239    1238    1424                
CQUAD4      1139       3    1316    1424    1425    1317                
CQUAD4      1140       3    1424    1238    1237    1425                
CQUAD4      1141       3    1317    1425    1426    1417                
CQUAD4      1142       3    1425    1237    1236    1426                
CQUAD4      1143       3    1417    1426    1427    1416                
CQUAD4      1144       3    1426    1236    1410    1427                
CQUAD4      1145       3    1416    1427    1428    1415                
CQUAD4      1146       3    1427    1410    1234    1428                
CQUAD4      1147       3    1415    1428    1413    1321                
CQUAD4      1148       3    1428    1234    1412    1413                
ENDDATA
