ID C:\Program_Files\Abaqus_j,FEMAP
SOL SESTATICS
TIME 10000
CEND
  ECHO = NONE
  DISPLACEMENT(PLOT) = ALL
  SPCFORCE(PLOT) = ALL
  OLOAD(PLOT) = ALL
  FORCE(PLOT,CORNER) = ALL
  STRESS(PLOT,CORNER) = ALL
BEGIN BULK
$ ***************************************************************************
$   Written by : FEMAP
$   Version    : 7.00
$   Translator : MSC/NASTRAN
$   From Model : C:\Program_Files\Abaqus_job\Heat3clayer.MOD
$   Date       : Sun Feb 28 22:30:36 2010
$ ***************************************************************************
$
PARAM,POST,-1
PARAM,OGEOM,NO
PARAM,AUTOSPC,YES
PARAM,GRDPNT,0
CORD2C         1       0      0.      0.      0.      0.      0.      1.+FEMAPC1
+FEMAPC1      1.      0.      1.
CORD2S         2       0      0.      0.      0.      0.      0.      1.+FEMAPC2
+FEMAPC2      1.      0.      1.
$ FEMAP Property 1 : Matrix
PSHELL         1       1      0.       1               1              0.
$ FEMAP Property 2 : Inclusion
PSHELL         2       1      0.       1               1              0.
$ FEMAP Property 3 : Clayer
PSHELL         3       1      0.       1               1              0.
$ FEMAP Material 1 : Untitled
MAT1           1                              0.      0.      0.        
GRID           1       0      2.     1.2      0.       0        
GRID           2       0    1.95     1.2      0.       0        
GRID           3       0     1.9     1.2      0.       0        
GRID           4       0    1.85     1.2      0.       0        
GRID           5       0     1.8     1.2      0.       0        
GRID           6       0    1.75     1.2      0.       0        
GRID           7       0     1.7     1.2      0.       0        
GRID           8       0    1.65     1.2      0.       0        
GRID           9       0     1.6     1.2      0.       0        
GRID          10       0    1.55     1.2      0.       0        
GRID          11       0     1.5     1.2      0.       0        
GRID          12       0    1.45     1.2      0.       0        
GRID          13       0     1.4     1.2      0.       0        
GRID          14       0    1.35     1.2      0.       0        
GRID          15       0     1.3     1.2      0.       0        
GRID          16       0    1.25     1.2      0.       0        
GRID          17       0     1.2     1.2      0.       0        
GRID          18       0    1.15     1.2      0.       0        
GRID          19       0     1.1     1.2      0.       0        
GRID          20       0    1.05     1.2      0.       0        
$ ... 1211 like lines cut
CQUAD4         1       1     195     196     198     199                
CQUAD4         2       1       5       6     195     199                
CQUAD4         3       1     173       3       4     200                
CQUAD4         4       1     200       4       5     199                
CQUAD4         5       1     174     173     200     199                
CQUAD4         6       1     175     174     199     198                
CQUAD4         7       1     176     175     198     201                
CQUAD4         8       1     172    1024     176     201                
CQUAD4         9       1     201     198     196     197                
CQUAD4        10       1     171     172     201     197                
CQUAD4        11       1     193     194     202     203                
CQUAD4        12       1       7       8     193     203                
CQUAD4        13       1     195       6       7     203                
CQUAD4        14       1     196     195     203     202                
CQUAD4        15       1    1025     171     197     204                
CTRIA3        16       1     204     197     196                        
CQUAD4        17       1    1026    1025     204     202                
CQUAD4        18       1    1027    1026     202     194                
CQUAD4        19       1      10      11     205     206                
CQUAD4        20       1       9      10     206     207                
CQUAD4        21       1     193       8       9     207                
CQUAD4        22       1     194     193     207     208                
CQUAD4        23       1    1028    1027     194     208                
CQUAD4        24       1     208     207     206     209                
CQUAD4        25       1    1029    1028     208     209                
CQUAD4        26       1    1030    1029     209     206                
CQUAD4        27       1     170    1030     206     205                
CQUAD4        28       1     205      11      12     212                
CQUAD4        29       1    1031     170     205     212                
CQUAD4        30       1      13      14     210     213                
CQUAD4        31       1     212      12      13     213                
CQUAD4        32       1     212     213     210     211                
CQUAD4        33       1     169    1031     212     211                
CQUAD4        34       1     210      14      15     191                
CQUAD4        35       1     211     210     191     192                
CQUAD4        36       1     168     169     211     192                
$ ... 375 like lines cut
CTRIA3       412       1      89      90     541                        
CQUAD4       413       1      89     541     540     532                
CQUAD4       414       1      88      89     532     533                
CQUAD4       415       1      87      88     533     534                
CQUAD4       416       1      86      87     534     535                
CQUAD4       417       1     501      85      86     535                
CQUAD4       418       1     542     543     546     548                
CQUAD4       419       1     527     528     542     548                
CQUAD4       420       1     527     548     549     550                
CQUAD4       421       1     531     526     527     550                
CQUAD4       422       1     532     531     550     549                
CQUAD4       423       1     549     548     546     547                
CQUAD4       424       1     533     532     549     547                
CQUAD4       425       1     546     543     544     551                
CQUAD4       426       1     547     546     551     552                
CQUAD4       427       1     534     533     547     552                
CQUAD4       428       1     534     552     551     544                
CQUAD4       429       1     535     534     544     545                
CQUAD4       430       1     502     501     535     545                
CQUAD4       431       1     545     544     555     557                
CQUAD4       432       1     503     502     545     557                
$ ... 295 like lines cut
CTRIA3       728       1     204     196     202                        
CTRIA3       729       1      90     537     541                        
CQUAD4       730       2     842     843     846     855                
CQUAD4       731       2     855     856     857     859                
CQUAD4       732       2     842     855     859     860                
CQUAD4       733       2     860     859     857     858                
CQUAD4       734       2     841     842     860     858                
CQUAD4       735       2     840     841     858     861                
CQUAD4       736       2     813     814     840     861                
CQUAD4       737       2     861     858     857     862                
CQUAD4       738       2     812     813     861     862                
CQUAD4       739       2     812     862     857     856                
CQUAD4       740       2     847     848     853     863                
CQUAD4       741       2     855     846     847     863                
CQUAD4       742       2     863     853     854     864                
CQUAD4       743       2     856     855     863     864                
CQUAD4       744       2     811     812     856     864                
CQUAD4       745       2     810     811     864     854                
CQUAD4       746       2     849     850     865     867                
CQUAD4       747       2     853     848     849     867                
CQUAD4       748       2     867     865     866     868                
CQUAD4       749       2     854     853     867     868                
$ ... 184 like lines cut
CTRIA3       934       3    1071    1040     805                        
CQUAD4       935       3    1070    1071     804    1082                
CQUAD4       936       3    1081    1079    1080    1083                
CQUAD4       937       3    1082    1081    1083    1084                
CQUAD4       938       3    1069    1070    1082    1084                
CQUAD4       939       3     132     131    1069    1084                
CQUAD4       940       3     133     132    1084    1083                
CQUAD4       941       3    1023     133    1083    1080                
CQUAD4       942       3     801    1041    1085    1088                
CQUAD4       943       3    1079     802     801    1088                
CQUAD4       944       3    1088    1085    1086    1087                
CQUAD4       945       3    1080    1079    1088    1087                
CQUAD4       946       3    1022    1023    1080    1087                
CQUAD4       947       3    1021    1022    1087    1086                
CQUAD4       948       3    1077    1078    1089    1091                
CQUAD4       949       3     800    1042    1077    1091                
CQUAD4       950       3    1091    1089    1090    1092                
CQUAD4       951       3    1041     800    1091    1092                
CQUAD4       952       3    1085    1041    1092    1090                
CQUAD4       953       3    1086    1085    1090    1093                
CQUAD4       954       3    1020    1021    1086    1093                
$ ... 7 like lines cut
CTRIA3       962       3    1018     135    1098                        
CQUAD4       963       3    1018    1098    1097    1096                
CQUAD4       964       3    1096     799    1044    1099                
CQUAD4       965       3    1017    1018    1096    1099                
CQUAD4       966       3    1099    1044     798    1095                
CQUAD4       967       3    1016    1017    1099    1095                
CQUAD4       968       3     797    1045    1101    1102                
CQUAD4       969       3    1095     798     797    1102                
CQUAD4       970       3    1015    1016    1095    1102                
CQUAD4       971       3     136    1015    1102    1101                
CQUAD4       972       3    1101    1045    1046    1100                
CQUAD4       973       3    1014     136    1101    1100                
CQUAD4       974       3    1047     796    1076    1103                
CQUAD4       975       3    1100    1046    1047    1103                
CQUAD4       976       3    1013    1014    1100    1103                
CQUAD4       977       3    1012    1013    1103    1076                
CQUAD4       978       3    1048    1049    1107    1108                
CQUAD4       979       3    1076     796    1048    1108                
CQUAD4       980       3     137    1012    1076    1108                
CQUAD4       981       3     138     137    1108    1107                
CQUAD4       982       3    1107    1049     834    1109                
$ ... 11 like lines cut
CTRIA3       994       3     142     141    1112                        
CQUAD4       995       3    1115    1116    1117    1118                
CQUAD4       996       3    1054    1104    1115    1118                
CQUAD4       997       3     832    1054    1118    1117                
CQUAD4       998       3    1111    1053     832    1117                
CQUAD4       999       3    1112    1111    1117    1116                
CQUAD4      1000       3    1116    1115    1119    1120                
CQUAD4      1001       3     142    1112    1116    1120                
CQUAD4      1002       3    1008     142    1120    1119                
CQUAD4      1003       3    1119    1115    1104    1105                
CQUAD4      1004       3    1007    1008    1119    1105                
CQUAD4      1005       3     831     830    1123    1125                
CQUAD4      1006       3     831    1125    1126    1129                
CQUAD4      1007       3    1129    1126    1127    1128                
CQUAD4      1008       3    1055     831    1129    1128                
CQUAD4      1009       3    1104    1054    1055    1128                
CQUAD4      1010       3    1105    1104    1128    1127                
CQUAD4      1011       3     143    1007    1105    1127                
CQUAD4      1012       3    1126    1125    1130    1131                
CQUAD4      1013       3     143    1127    1126    1131                
CQUAD4      1014       3    1006     143    1131    1130                
$ ... 73 like lines cut
CTRIA3      1088       3     811     810    1184                        
CQUAD4      1089       3    1183    1179    1163    1164                
CQUAD4      1090       3     812     811    1183    1164                
CTRIA3      1091       3    1163     169     168                        
CQUAD4      1092       3    1164    1163    1032    1187                
CQUAD4      1093       3     813     812    1164    1187                
CQUAD4      1094       3    1187    1032     167    1186                
CQUAD4      1095       3     814     813    1187    1186                
CQUAD4      1096       3     166     165    1185    1188                
CQUAD4      1097       3    1186     167     166    1188                
CQUAD4      1098       3     815     814    1186    1188                
CQUAD4      1099       3     816     815    1188    1185                
CQUAD4      1100       3     164     163    1144    1189                
CQUAD4      1101       3    1034     164    1189    1190                
CQUAD4      1102       3    1033    1034    1190    1191                
CQUAD4      1103       3    1185     165    1033    1191                
CQUAD4      1104       3    1066     816    1185    1191                
CQUAD4      1105       3    1065    1066    1191    1190                
CQUAD4      1106       3    1064    1065    1190    1189                
CQUAD4      1107       3    1063    1064    1189    1144                
CQUAD4      1108       3     162    1035    1195    1196                
CQUAD4      1109       3    1144     163     162    1196                
CQUAD4      1110       3     817    1063    1144    1196                
CQUAD4      1111       3    1062     817    1196    1195                
$ ... 10 like lines cut
CTRIA3      1122       3     158    1037    1199                        
CQUAD4      1123       3    1201     158    1199    1200                
CQUAD4      1124       3    1059     820    1201    1200                
CQUAD4      1125       3    1192    1193    1203    1205                
CQUAD4      1126       3     156     155    1192    1205                
CQUAD4      1127       3    1205    1203    1204    1206                
CQUAD4      1128       3     157     156    1205    1206                
CQUAD4      1129       3    1199     157    1206    1204                
CQUAD4      1130       3    1200    1199    1204    1207                
CQUAD4      1131       3     821    1059    1200    1207                
CQUAD4      1132       3    1207    1204    1203    1208                
CQUAD4      1133       3     822     821    1207    1208                
CQUAD4      1134       3     822    1208    1203    1193                
CQUAD4      1135       3    1211    1212    1213    1216                
CQUAD4      1136       3     154     153    1211    1216                
CQUAD4      1137       3    1216    1213    1214    1217                
CQUAD4      1138       3    1038     154    1216    1217                
CQUAD4      1139       3    1038    1217    1214    1215                
CQUAD4      1140       3    1192     155    1038    1215                
CQUAD4      1141       3    1193    1192    1215    1218                
CQUAD4      1142       3     823     822    1193    1218                
$ ... 26 like lines cut
CTRIA3      1169       3    1071     805     804                        
CTRIA3      1170       3     135    1019    1098                        
CTRIA3      1171       3     141     140    1112                        
CTRIA3      1172       3     811    1184    1183                        
CTRIA3      1173       3    1163     168    1032                        
CTRIA3      1174       3    1037     157    1199                        
ENDDATA
