ID C:\Users\Dima\Lame3d2\Mpl,FEMAP
SOL SESTATICS
TIME 10000
CEND
  ECHO = NONE
  DISPLACEMENT(PLOT) = ALL
  SPCFORCE(PLOT) = ALL
  OLOAD(PLOT) = ALL
  FORCE(PLOT,CORNER) = ALL
  STRESS(PLOT,CORNER) = ALL
BEGIN BULK
$ ***************************************************************************
$   Written by : FEMAP
$   Version    : 7.00
$   Translator : MSC/NASTRAN
$   From Model : C:\Users\Dima\Lame3d2\Mpls_all\Exe\Box2d_homog\Solid\model.mod
$   Date       : Wed Nov 09 07:08:03 2005
$ ***************************************************************************
$
PARAM,POST,-1
PARAM,OGEOM,NO
PARAM,AUTOSPC,YES
PARAM,GRDPNT,0
CORD2C         1       0      0.      0.      0.      0.      0.      1.+FEMAPC1
+FEMAPC1      1.      0.      1.
CORD2S         2       0      0.      0.      0.      0.      0.      1.+FEMAPC2
+FEMAPC2      1.      0.      1.
$ FEMAP Property 1 : Untitled
PSHELL         1       1      0.       1      1.       1 0.83333      0.
$ FEMAP Property 2 : Untitled
PSHELL         2       1      0.       1      1.       1 0.83333      0.
$ FEMAP Material 1 : Untitled
MAT1           1     7.8     2.3     0.3      0.      0.      0.        
GRID        2529       0      0.      1.      0.       0        
GRID        2530       0      0. 0.91667      0.       0        
GRID        2531       0      0. 0.83333      0.       0        
GRID        2532       0      0.    0.75      0.       0        
GRID        2533       0      0. 0.66667      0.       0        
GRID        2534       0      0. 0.58333      0.       0        
GRID        2536       0     0.1     0.5      0.       0        
GRID        2540       0 0.32366 0.74271      0.       0        
GRID        2544       0     0.5      1.      0.       0        
GRID        2545       0 0.41667      1.      0.       0        
GRID        2546       0 0.33333      1.      0.       0        
GRID        2547       0    0.25      1.      0.       0        
GRID        2548       0 0.16667      1.      0.       0        
GRID        2549       00.083333      1.      0.       0        
GRID        2550       0  0.2978 0.92517      0.       0        
GRID        2551       0 0.24523 0.84718      0.       0        
GRID        2552       0 0.21515 0.74942      0.       0        
GRID        2553       0 0.17466 0.67205      0.       0        
GRID        2554       0 0.13763 0.58924      0.       0        
GRID        2555       0 0.34822 0.84542      0.       0        
$ ... 116 like lines cut
CTRIA3      3597       1    2550    2555    2556                        
CTRIA3      3598       1    2546    2550    2556                        
CTRIA3      3599       1    2545    2546    2556                        
CTRIA3      3600       1    2556    2555    2557                        
CTRIA3      3601       1    2649    2544    2545                        
CTRIA3      3602       1    2649    2545    2556                        
CTRIA3      3603       1    2649    2556    2557                        
CTRIA3      3604       1    2648    2649    2557                        
CTRIA3      3605       1    2573    2648    2557                        
CTRIA3      3606       1    2573    2557    2555                        
CTRIA3      3607       1    2555    2550    2551                        
CTRIA3      3608       1    2540    2573    2555                        
CTRIA3      3609       1    2540    2555    2551                        
CTRIA3      3610       1    2540    2551    2552                        
CTRIA3      3611       1    2575    2540    2552                        
CTRIA3      3612       1    2575    2552    2553                        
CTRIA3      3613       1    2576    2575    2553                        
CTRIA3      3614       1    2576    2553    2554                        
CTRIA3      3615       1    2590    2576    2554                        
CTRIA3      3616       1    2536    2590    2554                        
$ ... 184 like lines cut
ENDDATA
