ID FEMAP,FEMAP
SOL SESTATICS
TIME 10000
CEND
  ECHO = NONE
  DISPLACEMENT(PLOT) = ALL
  SPCFORCE(PLOT) = ALL
  OLOAD(PLOT) = ALL
  FORCE(PLOT,CORNER) = ALL
  STRESS(PLOT,CORNER) = ALL
BEGIN BULK
$ ***************************************************************************
$   Written by : FEMAP
$   Version    : 7.00
$   Translator : MSC/NASTRAN
$   From Model : 
$   Date       : Wed Nov 09 09:42:37 2005
$ ***************************************************************************
$
PARAM,POST,-1
PARAM,OGEOM,NO
PARAM,AUTOSPC,YES
PARAM,GRDPNT,0
CORD2C         1       0      0.      0.      0.      0.      0.      1.+FEMAPC1
+FEMAPC1      1.      0.      1.
CORD2S         2       0      0.      0.      0.      0.      0.      1.+FEMAPC2
+FEMAPC2      1.      0.      1.
$ FEMAP Property 1 : Untitled
PSHELL         1       1      0.       1      1.       1 0.83333      0.
$ FEMAP Property 2 : Untitled
PSHELL         2       1      0.       1      1.       1 0.83333      0.
$ FEMAP Material 1 : Untitled
MAT1           1     7.8     2.3     0.3      0.      0.      0.        
GRID        2405       0      0.      1.      0.       0        
GRID        2406       0      0.     0.9      0.       0        
GRID        2407       0      0.     0.8      0.       0        
GRID        2408       0      0.     0.7      0.       0        
GRID        2409       0      0.     0.6      0.       0        
GRID        2410       0      0.     0.5      0.       0        
GRID        2413       0     0.3     0.5      0.       0        
GRID        2415       0 0.42929 0.57071      0.       0        
GRID        2419       0     0.5     0.9      0.       0        
GRID        2420       0     0.5      1.      0.       0        
GRID        2421       0     0.4      1.      0.       0        
GRID        2422       0     0.3      1.      0.       0        
GRID        2423       0     0.2      1.      0.       0        
GRID        2424       0     0.1      1.      0.       0        
GRID        2425       0 0.40924 0.69076      0.       0        
GRID        2426       0 0.30572 0.69428      0.       0        
GRID        2427       0  0.2022  0.6978      0.       0        
GRID        2428       0 0.10082 0.69918      0.       0        
GRID        2429       0 0.30924 0.59076      0.       0        
GRID        2430       0 0.20305 0.59695      0.       0        
$ ... 100 like lines cut
CQUAD4      3441       1    2415    2455    2456    2425                
CQUAD4      3442       1    2415    2425    2426    2429                
CQUAD4      3443       1    2413    2492    2415    2429                
CQUAD4      3444       1    2490    2413    2429    2430                
CQUAD4      3445       1    2489    2490    2430    2431                
CQUAD4      3446       1    2409    2410    2489    2431                
CQUAD4      3447       1    2430    2429    2426    2427                
CQUAD4      3448       1    2431    2430    2427    2428                
CQUAD4      3449       1    2408    2409    2431    2428                
CQUAD4      3450       1    2419    2420    2421    2436                
CQUAD4      3451       1    2457    2419    2436    2437                
CQUAD4      3452       1    2425    2456    2457    2437                
CQUAD4      3453       1    2436    2421    2422    2434                
CQUAD4      3454       1    2437    2436    2434    2435                
CQUAD4      3455       1    2426    2425    2437    2435                
CQUAD4      3456       1    2434    2422    2423    2432                
CQUAD4      3457       1    2435    2434    2432    2433                
CQUAD4      3458       1    2427    2426    2435    2433                
CQUAD4      3459       1    2432    2423    2424    2438                
CQUAD4      3460       1    2433    2432    2438    2439                
$ ... 76 like lines cut
ENDDATA
