ID C:\Users\Dima\Lame3d2\IDE,FEMAP
SOL SESTATICS
TIME 10000
CEND
  ECHO = NONE
  DISPLACEMENT(PLOT) = ALL
  SPCFORCE(PLOT) = ALL
  OLOAD(PLOT) = ALL
  FORCE(PLOT,CORNER) = ALL
  STRESS(PLOT,CORNER) = ALL
BEGIN BULK
$ ***************************************************************************
$   Written by : FEMAP
$   Version    : 7.00
$   Translator : MSC/NASTRAN
$   From Model : C:\Users\Dima\Lame3d2\IDENT_12septmber2006\Ident\Exe\box2d_fulleren\Solid\model.MOD
$   Date       : Thu Nov 09 12:41:54 2006
$ ***************************************************************************
$
PARAM,POST,-1
PARAM,OGEOM,NO
PARAM,AUTOSPC,YES
PARAM,GRDPNT,0
CORD2C         1       0      0.      0.      0.      0.      0.      1.+FEMAPC1
+FEMAPC1      1.      0.      1.
CORD2S         2       0      0.      0.      0.      0.      0.      1.+FEMAPC2
+FEMAPC2      1.      0.      1.
$ FEMAP Property 1 : Matrix
PSHELL         1       1      0.       1               1              0.
$ FEMAP Property 2 : Fulleren
PSHELL         2       1      0.       1               1              0.
$ FEMAP Material 1 : Untitled
MAT1           1     7.8     2.3     0.3      0.      0.      0.        
GRID         224       0      0.      0.      0.       0        
GRID         225       00.093795      0.      0.       0        
GRID         226       0 0.18759      0.      0.       0        
GRID         227       0 0.18759 0.12506      0.       0        
GRID         231       0 0.18759  0.6253      0.       0        
GRID         232       00.093795  0.6253      0.       0        
GRID         233       0      0.  0.6253      0.       0        
GRID         234       0      0. 0.50024      0.       0        
GRID         235       0      0. 0.37518      0.       0        
GRID         236       0      0. 0.25012      0.       0        
GRID         237       0      0. 0.12506      0.       0        
GRID         238       00.093795 0.12506      0.       0        
GRID         239       00.093795 0.25012      0.       0        
GRID         240       00.093795 0.37518      0.       0        
GRID         241       00.093795 0.50024      0.       0        
GRID         242       0  0.6253  0.6253      0.       0        
GRID         243       0 0.53151  0.6253      0.       0        
GRID         244       0 0.43771  0.6253      0.       0        
GRID         248       0 0.43771 0.12506      0.       0        
GRID         249       0 0.43771      0.      0.       0        
$ ... 22 like lines cut
CQUAD4       370       1     224     225     238     237                
CQUAD4       371       1     225     226     227     238                
CQUAD4       372       1     237     238     239     236                
CQUAD4       373       1     238     227     263     239                
CQUAD4       374       1     236     239     240     235                
CQUAD4       375       1     239     263     262     240                
CQUAD4       376       1     235     240     241     234                
CQUAD4       377       1     240     262     261     241                
CQUAD4       378       1     234     241     232     233                
CQUAD4       379       1     241     261     231     232                
CQUAD4       380       1     242     243     256     255                
CQUAD4       381       1     243     244     271     256                
CQUAD4       382       1     255     256     257     254                
CQUAD4       383       1     256     271     270     257                
CQUAD4       384       1     254     257     258     253                
CQUAD4       385       1     257     270     269     258                
CQUAD4       386       1     253     258     259     252                
CQUAD4       387       1     258     269     248     259                
CQUAD4       388       1     252     259     250     251                
CQUAD4       389       1     259     248     249     250                
$ ... 10 like lines cut
ENDDATA
