ID C:\Users\Dima\Lame3d2\Mpl,FEMAP
SOL SESTATICS
TIME 10000
CEND
  ECHO = NONE
  DISPLACEMENT(PLOT) = ALL
  SPCFORCE(PLOT) = ALL
  OLOAD(PLOT) = ALL
  FORCE(PLOT,CORNER) = ALL
  STRESS(PLOT,CORNER) = ALL
BEGIN BULK
$ ***************************************************************************
$   Written by : FEMAP
$   Version    : 7.00
$   Translator : MSC/NASTRAN
$   From Model : C:\Users\Dima\Lame3d2\Mpls_all\Exe\Box2d_homog\Solid\model.mod
$   Date       : Wed Jun 13 21:07:59 2007
$ ***************************************************************************
$
PARAM,POST,-1
PARAM,OGEOM,NO
PARAM,AUTOSPC,YES
PARAM,GRDPNT,0
CORD2C         1       0      0.      0.      0.      0.      0.      1.+FEMAPC1
+FEMAPC1      1.      0.      1.
CORD2S         2       0      0.      0.      0.      0.      0.      1.+FEMAPC2
+FEMAPC2      1.      0.      1.
$ FEMAP Load Set 111 : Inclusion BSOURCE 2.3776 2.3776 1.385 1.385 0.
$ FEMAP Property 1 : Matrix
PSHELL         1       1      0.       1               1              0.
$ FEMAP Property 2 : Fulleren
PSHELL         2       1      0.       1               1              0.
$ FEMAP Material 1 : mat
MAT1           1                              0.      0.      0.        
GRID           9       0 3.35694 1.39826      0.       0        
GRID          11       0  3.8426  2.3776      0.       0        
GRID          12       0 3.73108 1.81697      0.       0        
GRID          13       0 3.41351 1.34169      0.       0        
GRID          14       0 2.93823 1.02412      0.       0        
GRID          15       0  2.3776  0.9126      0.       0        
GRID          17       0  2.3776      0.      0.       0        
GRID          18       0   2.972      0.      0.       0        
GRID          19       0  3.5664      0.      0.       0        
GRID          20       0  4.1608      0.      0.       0        
GRID          21       0  4.7552      0.      0.       0        
GRID          22       0  4.7552  0.5944      0.       0        
GRID          23       0  4.7552  1.1888      0.       0        
GRID          24       0  4.7552  1.7832      0.       0        
GRID          27       0 4.05361 0.55849      0.       0        
GRID          28       0 3.63315 0.92179      0.       0        
GRID          29       0 3.09873 0.55442      0.       0        
GRID          30       0 3.57292  0.3707      0.       0        
GRID          31       0 4.35668 1.29237      0.       0        
GRID          32       0 3.96671 1.23412      0.       0        
$ ... 93 like lines cut
CQUAD4         1       1      38      15      14      39                
CQUAD4         2       1      39      14      13       9                
CQUAD4         3       1       9      13      12      41                
CQUAD4         4       1      41      12      11      81                
CQUAD4         5       1      94      17      18      29                
CQUAD4         6       1      14      15      94      29                
CQUAD4         7       1      19      20      27      30                
CQUAD4         8       1      29      18      19      30                
CQUAD4         9       1      29      30      27      28                
CQUAD4        10       1      13      14      29      28                
CQUAD4        11       1      27      20      21      22                
CQUAD4        12       1      22      23      31      34                
CQUAD4        13       1      34      31      32      33                
CQUAD4        14       1      27      22      34      33                
CQUAD4        15       1      28      27      33      32                
CQUAD4        16       1      31      23      24      35                
CQUAD4        17       1      12      13      28      32                
CQUAD4        18       1      12      32      31      35                
CQUAD4        19       1      35      24      64      65                
CQUAD4        20       1      11      12      35      65                
CTRIA3        21       2      39       9      44                        
CQUAD4        22       2     115      38      39      44                
CQUAD4        23       2      44      41      81      82                
CQUAD4        24       2     153     115      44      82                
CTRIA3        25       2       9      41      44                        
CQUAD4        26       1     132     155      78      53                
CQUAD4        27       1      53      78      48      52                
CQUAD4        28       1      52      48      47      51                
CQUAD4        29       1      51      47      81      11                
CQUAD4        30       1     134     133      68      57                
CQUAD4        31       1     132      53      68     133                
CQUAD4        32       1      59      58      69      66                
CQUAD4        33       1      57      68      69      58                
CQUAD4        34       1      69      68      67      66                
CQUAD4        35       1      53      52      67      68                
CQUAD4        36       1      59      66      61      60                
CQUAD4        37       1      62      61      73      70                
CQUAD4        38       1      70      73      72      71                
CQUAD4        39       1      61      66      72      73                
CQUAD4        40       1      66      67      71      72                
CQUAD4        41       1      62      70      74      63                
CQUAD4        42       1      52      51      71      67                
CQUAD4        43       1      71      51      74      70                
CQUAD4        44       1      63      74      65      64                
CQUAD4        45       1      51      11      65      74                
CTRIA3        46       2      48      78      83                        
CQUAD4        47       2     155      76      83      78                
CQUAD4        48       2      47      83      82      81                
CQUAD4        49       2      76     153      82      83                
CTRIA3        50       2      47      48      83                        
CQUAD4        51       1      15      38     117      92                
CQUAD4        52       1      92     117     118      91                
CQUAD4        53       1      91     118      86      90                
CQUAD4        54       1      90      86      85     128                
CQUAD4        55       1      17      94     107      96                
CQUAD4        56       1      15      92     107      94                
CQUAD4        57       1      98      97     108     105                
CQUAD4        58       1      96     107     108      97                
CQUAD4        59       1     108     107     106     105                
CQUAD4        60       1      92      91     106     107                
CQUAD4        61       1      98     105     100      99                
CQUAD4        62       1     101     100     112     109                
CQUAD4        63       1     109     112     111     110                
CQUAD4        64       1     100     105     111     112                
CQUAD4        65       1     105     106     110     111                
CQUAD4        66       1     101     109     113     102                
CQUAD4        67       1      91      90     110     106                
CQUAD4        68       1     110      90     113     109                
CQUAD4        69       1     102     113     104     103                
CQUAD4        70       1      90     128     104     113                
CTRIA3        71       2     118     117     122                        
CQUAD4        72       2      38     115     122     117                
CQUAD4        73       2      86     122     160      85                
CQUAD4        74       2     115     153     160     122                
CTRIA3        75       2      86     118     122                        
CQUAD4        76       1     155     132     131     127                
CQUAD4        77       1     127     131     130     126                
CQUAD4        78       1     126     130     129     158                
CQUAD4        79       1     158     129     128      85                
CQUAD4        80       1     133     134     135     146                
CQUAD4        81       1     131     132     133     146                
CQUAD4        82       1     136     137     144     147                
CQUAD4        83       1     146     135     136     147                
CQUAD4        84       1     146     147     144     145                
CQUAD4        85       1     130     131     146     145                
CQUAD4        86       1     144     137     138     139                
CQUAD4        87       1     139     140     148     151                
CQUAD4        88       1     151     148     149     150                
CQUAD4        89       1     144     139     151     150                
CQUAD4        90       1     145     144     150     149                
CQUAD4        91       1     148     140     141     152                
CQUAD4        92       1     129     130     145     149                
CQUAD4        93       1     129     149     148     152                
CQUAD4        94       1     152     141     103     104                
CQUAD4        95       1     128     129     152     104                
CTRIA3        96       2     127     126     161                        
CQUAD4        97       2      76     155     127     161                
CQUAD4        98       2     161     158      85     160                
CQUAD4        99       2     153      76     161     160                
CTRIA3       100       2     126     158     161                        
ENDDATA
