ID C:\Users\Dima\Lame3d2\Mpl,FEMAP
SOL SESTATICS
TIME 10000
CEND
  ECHO = NONE
  DISPLACEMENT(PLOT) = ALL
  SPCFORCE(PLOT) = ALL
  OLOAD(PLOT) = ALL
  FORCE(PLOT,CORNER) = ALL
  STRESS(PLOT,CORNER) = ALL
BEGIN BULK
$ ***************************************************************************
$   Written by : FEMAP
$   Version    : 7.00
$   Translator : MSC/NASTRAN
$   From Model : C:\Users\Dima\Lame3d2\Mpls_all\Exe\Box2d_homog\Solid\model.mod
$   Date       : Wed Jun 13 20:46:59 2007
$ ***************************************************************************
$
PARAM,POST,-1
PARAM,OGEOM,NO
PARAM,AUTOSPC,YES
PARAM,GRDPNT,0
CORD2C         1       0      0.      0.      0.      0.      0.      1.+FEMAPC1
+FEMAPC1      1.      0.      1.
CORD2S         2       0      0.      0.      0.      0.      0.      1.+FEMAPC2
+FEMAPC2      1.      0.      1.
$ FEMAP Load Set 111 : Inclusion BSOURCE 1.63855 1.63855 1.385 1.385 0.
$ FEMAP Property 1 : Matrix
PSHELL         1       1      0.       1               1              0.
$ FEMAP Property 2 : Fulleren
PSHELL         2       1      0.       1               1              0.
$ FEMAP Material 1 : mat
MAT1           1                              0.      0.      0.        
GRID           4       0 0.92105  2.8813      0.       0        
GRID          10       0 0.30074 1.99701      0.       0        
GRID          12       0 0.65921 2.61789      0.       0        
GRID          13       0 0.94605   2.838      0.       0        
GRID          14       0 1.28009 2.97636      0.       0        
GRID          16       0 0.25245 2.00996      0.       0        
GRID          17       0  0.3958 2.35605      0.       0        
GRID          18       0 0.62385 2.65325      0.       0        
GRID          20       0 1.26714 3.02465      0.       0        
GRID          21       0 1.63855 3.07355      0.       0        
GRID          22       0 1.63855  3.2771      0.       0        
GRID          23       0 1.22891  3.2771      0.       0        
GRID          24       0 0.81927  3.2771      0.       0        
GRID          25       0 0.40964  3.2771      0.       0        
GRID          26       0      0.  3.2771      0.       0        
GRID          27       0      0. 2.86746      0.       0        
GRID          28       0      0. 2.45782      0.       0        
GRID          29       0      0. 2.04819      0.       0        
GRID          30       0      0. 1.63855      0.       0        
GRID          31       0  0.4602 3.07058      0.       0        
$ ... 133 like lines cut
CQUAD4         1       1      93      21      20      14                
CQUAD4         2       1      14      20       4      13                
CQUAD4         3       1      13       4      18      12                
CQUAD4         4       1      12      18      17      45                
CQUAD4         5       1      45      17      16      10                
CQUAD4         6       1      10      16     114     151                
CQUAD4         7       1      20      21      22      23                
CQUAD4         8       1       4      20      23      24                
CQUAD4         9       1      24      25      31      33                
CQUAD4        10       1      33      31      32      34                
CQUAD4        11       1       4      24      33      34                
CQUAD4        12       1      18       4      34      32                
CQUAD4        13       1      26      27      35      36                
CQUAD4        14       1      31      25      26      36                
CQUAD4        15       1      32      31      36      35                
CQUAD4        16       1      17      18      32      35                
CQUAD4        17       1      17      35      27      28                
CQUAD4        18       1      16      17      28      29                
CQUAD4        19       1     114      16      29      30                
CQUAD4        20       2     153      50      51      54                
$ ... 116 like lines cut
ENDDATA
