ID C:\Users\Dima\Lame3d2\Mpl,FEMAP
SOL SESTATICS
TIME 10000
CEND
  ECHO = NONE
  DISPLACEMENT(PLOT) = ALL
  SPCFORCE(PLOT) = ALL
  OLOAD(PLOT) = ALL
  FORCE(PLOT,CORNER) = ALL
  STRESS(PLOT,CORNER) = ALL
BEGIN BULK
$ ***************************************************************************
$   Written by : FEMAP
$   Version    : 7.00
$   Translator : MSC/NASTRAN
$   From Model : C:\Users\Dima\Lame3d2\Mpls_all\Exe\Box2d_homog\Solid\model.mod
$   Date       : Wed Jun 13 20:59:44 2007
$ ***************************************************************************
$
PARAM,POST,-1
PARAM,OGEOM,NO
PARAM,AUTOSPC,YES
PARAM,GRDPNT,0
CORD2C         1       0      0.      0.      0.      0.      0.      1.+FEMAPC1
+FEMAPC1      1.      0.      1.
CORD2S         2       0      0.      0.      0.      0.      0.      1.+FEMAPC2
+FEMAPC2      1.      0.      1.
$ FEMAP Load Set 111 : Inclusion BSOURCE 1.90505 1.90505 1.385 1.385 0.
$ FEMAP Property 1 : Matrix
PSHELL         1       1      0.       1               1              0.
$ FEMAP Property 2 : Fulleren
PSHELL         2       1      0.       1               1              0.
$ FEMAP Material 1 : mat
MAT1           1                              0.      0.      0.        
GRID           1       0      0.  3.8101      0.       0        
GRID           2       0      0. 3.33384      0.       0        
GRID           3       0      0. 2.85757      0.       0        
GRID           4       0      0. 2.38131      0.       0        
GRID           7       0 0.52126 2.35467      0.       0        
GRID          13       0 1.42879  3.8101      0.       0        
GRID          14       0 0.95252  3.8101      0.       0        
GRID          15       0 0.47626  3.8101      0.       0        
GRID          16       0  0.5979 3.30243      0.       0        
GRID          17       0 1.00207 3.46718      0.       0        
GRID          18       0 0.46186 2.81878      0.       0        
GRID          19       0 0.45005 1.90505      0.       0        
GRID          21       0 0.58784 2.33304      0.       0        
GRID          22       0 0.78456 2.71913      0.       0        
GRID          23       0 1.09097 3.02554      0.       0        
GRID          26       0 1.90505 3.36005      0.       0        
GRID          27       0 1.45543 3.28884      0.       0        
GRID          28       0 1.04982 3.08217      0.       0        
GRID          29       0 0.72793 2.76028      0.       0        
GRID          34       0 1.90505 1.90505      0.       0        
$ ... 85 like lines cut
CQUAD4         1       1      27      26      89      13                
CQUAD4         2       1      14      15      16      17                
CQUAD4         3       1      27      13      14      17                
CQUAD4         4       1      28      27      17      16                
CQUAD4         5       1       4      49      19       7                
CTRIA3         6       1       7      29      18                        
CQUAD4         7       1       3       4       7      18                
CQUAD4         8       1      18      29      28      16                
CQUAD4         9       1       2       3      18      16                
CQUAD4        10       1       1       2      16      15                
CQUAD4        11       1      19      59      21       7                
CQUAD4        12       1       7      21      22      29                
CQUAD4        13       1      29      22      23      28                
CQUAD4        14       1      28      23      38      27                
CQUAD4        15       1      27      38     113      26                
CQUAD4        16       2     112     113      38      42                
CQUAD4        17       2     111     112      42      43                
CQUAD4        18       2      71      34     111      43                
CTRIA3        19       2      42      38      23                        
CTRIA3        20       2      22      21      44                        
CQUAD4        21       2      43      42      22      44                
CQUAD4        22       2      70      71      43      44                
CQUAD4        23       2      59      70      44      21                
CTRIA3        24       2      42      23      22                        
CQUAD4        25       1      65      66      52     127                
CQUAD4        26       1      54      53      56      55                
CQUAD4        27       1      52      66      56      53                
CQUAD4        28       1      66      67      55      56                
CQUAD4        29       1      49      48      50      19                
CTRIA3        30       1      68      50      57                        
CQUAD4        31       1      48      47      57      50                
CQUAD4        32       1      68      57      55      67                
CQUAD4        33       1      47      46      55      57                
CQUAD4        34       1      46      45      54      55                
CQUAD4        35       1      59      19      50      79                
CQUAD4        36       1      79      50      68      61                
CQUAD4        37       1      61      68      67      77                
CQUAD4        38       1      77      67      66      76                
CQUAD4        39       1      76      66      65     151                
CQUAD4        40       2     151      74      80      76                
CQUAD4        41       2      74      73      81      80                
CQUAD4        42       2      34      71      81      73                
CTRIA3        43       2      76      80      77                        
CTRIA3        44       2      79      61      82                        
CQUAD4        45       2      80      81      82      61                
CQUAD4        46       2      71      70      82      81                
CQUAD4        47       2      70      59      79      82                
CTRIA3        48       2      77      80      61                        
CQUAD4        49       1      26     104      90      89                
CQUAD4        50       1      92      91      94      93                
CQUAD4        51       1      90     104      94      91                
CQUAD4        52       1     104     105      93      94                
CQUAD4        53       1     125      86      88      96                
CTRIA3        54       1     106      88      95                        
CQUAD4        55       1      86      85      95      88                
CQUAD4        56       1     106      95      93     105                
CQUAD4        57       1      85      84      93      95                
CQUAD4        58       1      84      83      92      93                
CQUAD4        59       1      97      96      88      98                
CQUAD4        60       1      98      88     106      99                
CQUAD4        61       1      99     106     105     100                
CQUAD4        62       1     100     105     104     114                
CQUAD4        63       1     114     104      26     113                
CQUAD4        64       2     113     112     118     114                
CQUAD4        65       2     112     111     119     118                
CQUAD4        66       2      34     109     119     111                
CTRIA3        67       2     114     118     100                        
CTRIA3        68       2      98      99     120                        
CQUAD4        69       2     118     119     120      99                
CQUAD4        70       2     109     146     120     119                
CQUAD4        71       2     146      97      98     120                
CTRIA3        72       2     100     118      99                        
CQUAD4        73       1     142      65     127     128                
CQUAD4        74       1     129     130     131     132                
CQUAD4        75       1     142     128     129     132                
CQUAD4        76       1     143     142     132     131                
CQUAD4        77       1     124     125      96     126                
CTRIA3        78       1     126     144     133                        
CQUAD4        79       1     123     124     126     133                
CQUAD4        80       1     133     144     143     131                
CQUAD4        81       1     122     123     133     131                
CQUAD4        82       1     121     122     131     130                
CQUAD4        83       1      96      97     136     126                
CQUAD4        84       1     126     136     154     144                
CQUAD4        85       1     144     154     153     143                
CQUAD4        86       1     143     153     152     142                
CQUAD4        87       1     142     152     151      65                
CQUAD4        88       2      74     151     152     156                
CQUAD4        89       2      73      74     156     157                
CQUAD4        90       2     109      34      73     157                
CTRIA3        91       2     156     152     153                        
CTRIA3        92       2     154     136     158                        
CQUAD4        93       2     157     156     154     158                
CQUAD4        94       2     146     109     157     158                
CQUAD4        95       2      97     146     158     136                
CTRIA3        96       2     156     153     154                        
ENDDATA
