ID C:\Users\Dima\Lame3d2\IDE,FEMAP
SOL SESTATICS
TIME 10000
CEND
  ECHO = NONE
  DISPLACEMENT(PLOT) = ALL
  SPCFORCE(PLOT) = ALL
  OLOAD(PLOT) = ALL
  FORCE(PLOT,CORNER) = ALL
  STRESS(PLOT,CORNER) = ALL
BEGIN BULK
$ ***************************************************************************
$   Written by : FEMAP
$   Version    : 7.00
$   Translator : MSC/NASTRAN
$   From Model : C:\Users\Dima\Lame3d2\IDENT_12septmber2006\Ident\Exe\box2d_fulleren\Solid\model.MOD
$   Date       : Tue Sep 26 21:12:37 2006
$ ***************************************************************************
$
PARAM,POST,-1
PARAM,OGEOM,NO
PARAM,AUTOSPC,YES
PARAM,GRDPNT,0
CORD2C         1       0      0.      0.      0.      0.      0.      1.+FEMAPC1
+FEMAPC1      1.      0.      1.
CORD2S         2       0      0.      0.      0.      0.      0.      1.+FEMAPC2
+FEMAPC2      1.      0.      1.
$ FEMAP Load Set 111 : Inclusion BSOURCE 0.4806 0.4806 0.285 0.285 0.
$ FEMAP Property 1 : Matrix
PSHELL         1       1      0.       1               1              0.
$ FEMAP Property 2 : Fulleren
PSHELL         2       1      0.       1               1              0.
$ FEMAP Material 1 : Untitled
MAT1           1     7.8     2.3     0.3      0.      0.      0.        
GRID         363       0      0.  0.9612      0.       0        
GRID         364       0      0. 0.82389      0.       0        
GRID         365       0      0. 0.68657      0.       0        
GRID         366       0      0. 0.54926      0.       0        
GRID         367       0      0. 0.41194      0.       0        
GRID         368       0      0. 0.27463      0.       0        
GRID         369       0      0. 0.13731      0.       0        
GRID         370       0      0.      0.      0.       0        
GRID         371       0 0.13731      0.      0.       0        
GRID         372       0 0.27463      0.      0.       0        
GRID         373       0 0.41194      0.      0.       0        
GRID         374       0 0.54926      0.      0.       0        
GRID         375       0 0.68657      0.      0.       0        
GRID         376       0 0.82389      0.      0.       0        
GRID         377       0  0.9612      0.      0.       0        
GRID         378       0  0.9612 0.13731      0.       0        
GRID         379       0  0.9612 0.27463      0.       0        
GRID         380       0  0.9612 0.41194      0.       0        
GRID         381       0  0.9612 0.54926      0.       0        
GRID         382       0  0.9612 0.68657      0.       0        
$ ... 43 like lines cut
CTRIA3       552       1     403     365     366                        
CTRIA3       553       1     425     392     403                        
CTRIA3       554       1     425     403     366                        
CTRIA3       555       1     425     366     367                        
CTRIA3       556       1     371     405     406                        
CTRIA3       557       1     370     371     406                        
CTRIA3       558       1     369     370     406                        
CTRIA3       559       1     368     369     406                        
CTRIA3       560       1     368     406     407                        
CTRIA3       561       1     402     425     367                        
CTRIA3       562       1     402     367     368                        
CTRIA3       563       1     402     368     407                        
CTRIA3       564       1     407     406     405                        
CTRIA3       565       1     401     402     407                        
CTRIA3       566       1     401     407     405                        
CTRIA3       567       1     405     371     372                        
CTRIA3       568       1     372     373     408                        
CTRIA3       569       1     405     372     408                        
CTRIA3       570       1     401     405     408                        
CTRIA3       571       1     428     401     408                        
$ ... 76 like lines cut
ENDDATA
