ID c:\Users\Dima\Lame3d2\IDE,FEMAP
SOL SESTATICS
TIME 10000
CEND
  ECHO = NONE
  DISPLACEMENT(PLOT) = ALL
  SPCFORCE(PLOT) = ALL
  OLOAD(PLOT) = ALL
  FORCE(PLOT,CORNER) = ALL
  STRESS(PLOT,CORNER) = ALL
BEGIN BULK
$ ***************************************************************************
$   Written by : FEMAP
$   Version    : 7.00
$   Translator : MSC/NASTRAN
$   From Model : c:\Users\Dima\Lame3d2\IDENT_17may2006\Ident\Exe\box2d_fulleren\Solid\model.MOD
$   Date       : Mon May 22 14:35:35 2006
$ ***************************************************************************
$
PARAM,POST,-1
PARAM,OGEOM,NO
PARAM,AUTOSPC,YES
PARAM,GRDPNT,0
CORD2C         1       0      0.      0.      0.      0.      0.      1.+FEMAPC1
+FEMAPC1      1.      0.      1.
CORD2S         2       0      0.      0.      0.      0.      0.      1.+FEMAPC2
+FEMAPC2      1.      0.      1.
$ FEMAP Load Set 111 : Inclusion BSOURCE 0.3945 0.3945 0.285 0.285 0.
$ FEMAP Property 1 : Matrix
PSHELL         1       1      0.       1               1              0.
$ FEMAP Property 2 : Fulleren
PSHELL         2       1      0.       1               1              0.
$ FEMAP Material 1 : Untitled
MAT1           1     7.8     2.3     0.3      0.      0.      0.        
GRID          24       0      0.   0.789      0.       0        
GRID          25       0      0. 0.73264      0.       0        
GRID          26       0      0. 0.67629      0.       0        
GRID          27       0      0. 0.61993      0.       0        
GRID          28       0      0. 0.56357      0.       0        
GRID          29       0      0. 0.50721      0.       0        
GRID          30       0      0. 0.45086      0.       0        
GRID          31       0      0.  0.3945      0.       0        
GRID          32       0      0. 0.33814      0.       0        
GRID          33       0      0. 0.28179      0.       0        
GRID          34       0      0. 0.22543      0.       0        
GRID          35       0      0. 0.16907      0.       0        
GRID          36       0      0. 0.11271      0.       0        
GRID          37       0      0.0.056357      0.       0        
GRID          38       0      0.      0.      0.       0        
GRID          39       00.056357      0.      0.       0        
GRID          40       0 0.11271      0.      0.       0        
GRID          41       0 0.16907      0.      0.       0        
GRID          42       0 0.22543      0.      0.       0        
GRID          43       0 0.28179      0.      0.       0        
$ ... 237 like lines cut
CTRIA3       124       1      35      36     115                        
CTRIA3       125       1      35     115     118                        
CTRIA3       126       1      34      35     118                        
CTRIA3       127       1      34     118     119                        
CTRIA3       128       1      33      34     119                        
CTRIA3       129       1      33     119     120                        
CTRIA3       130       1      32      33     120                        
CTRIA3       131       1      32     120     121                        
CTRIA3       132       1      31      32     121                        
CTRIA3       133       1     112      30      31                        
CTRIA3       134       1     112      31     121                        
CTRIA3       135       1     216     112     121                        
CTRIA3       136       1     111     216     121                        
CTRIA3       137       1     111     121     120                        
CTRIA3       138       1     120     119     123                        
CTRIA3       139       1     111     120     123                        
CTRIA3       140       1     110     111     123                        
CTRIA3       141       1     119     118     122                        
CTRIA3       142       1     123     119     122                        
CTRIA3       143       1     219     110     123                        
$ ... 436 like lines cut
ENDDATA
