ID C:\Users\Dima\Lame3d2\IDE,FEMAP
SOL SESTATICS
TIME 10000
CEND
  ECHO = NONE
  DISPLACEMENT(PLOT) = ALL
  SPCFORCE(PLOT) = ALL
  OLOAD(PLOT) = ALL
  FORCE(PLOT,CORNER) = ALL
  STRESS(PLOT,CORNER) = ALL
BEGIN BULK
$ ***************************************************************************
$   Written by : FEMAP
$   Version    : 7.00
$   Translator : MSC/NASTRAN
$   From Model : C:\Users\Dima\Lame3d2\IDENT_12septmber2006\Ident\Exe\box2d_fulleren\Solid\model.MOD
$   Date       : Tue Sep 26 21:38:15 2006
$ ***************************************************************************
$
PARAM,POST,-1
PARAM,OGEOM,NO
PARAM,AUTOSPC,YES
PARAM,GRDPNT,0
CORD2C         1       0      0.      0.      0.      0.      0.      1.+FEMAPC1
+FEMAPC1      1.      0.      1.
CORD2S         2       0      0.      0.      0.      0.      0.      1.+FEMAPC2
+FEMAPC2      1.      0.      1.
$ FEMAP Load Set 111 : Inclusion BSOURCE 0.34355 0.34355 0.285 0.285 0.
$ FEMAP Property 1 : Matrix
PSHELL         1       1      0.       1               1              0.
$ FEMAP Property 2 : Fulleren
PSHELL         2       1      0.       1               1              0.
$ FEMAP Material 1 : Untitled
MAT1           1     7.8     2.3     0.3      0.      0.      0.        
GRID         224       0      0.  0.6871      0.       0        
GRID         225       0      0. 0.58894      0.       0        
GRID         226       0      0. 0.49079      0.       0        
GRID         227       0      0. 0.39263      0.       0        
GRID         228       0      0. 0.29447      0.       0        
GRID         229       0      0. 0.19631      0.       0        
GRID         230       0      0.0.098157      0.       0        
GRID         231       0      0.      0.      0.       0        
GRID         232       00.098157      0.      0.       0        
GRID         233       0 0.19631      0.      0.       0        
GRID         234       0 0.29447      0.      0.       0        
GRID         235       0 0.39263      0.      0.       0        
GRID         236       0 0.49079      0.      0.       0        
GRID         237       0 0.58894      0.      0.       0        
GRID         238       0  0.6871      0.      0.       0        
GRID         239       0  0.68710.098157      0.       0        
GRID         240       0  0.6871 0.19631      0.       0        
GRID         241       0  0.6871 0.29447      0.       0        
GRID         242       0  0.6871 0.39263      0.       0        
GRID         243       0  0.6871 0.49079      0.       0        
$ ... 49 like lines cut
CTRIA3       370       1     288     235     236                        
CTRIA3       371       1     264     288     236                        
CTRIA3       372       1     236     237     270                        
CTRIA3       373       1     264     236     270                        
CTRIA3       374       1     290     264     270                        
CTRIA3       375       1     270     237     238                        
CTRIA3       376       1     270     238     239                        
CTRIA3       377       1     290     270     239                        
CTRIA3       378       1     290     239     240                        
CTRIA3       379       1     291     290     240                        
CTRIA3       380       1     291     240     241                        
CTRIA3       381       1     274     291     241                        
CTRIA3       382       1     274     241     242                        
CTRIA3       383       1     260     274     242                        
CTRIA3       384       1     260     242     243                        
CTRIA3       385       1     259     260     243                        
CTRIA3       386       1     259     243     244                        
CTRIA3       387       1     245     246     271                        
CTRIA3       388       1     244     245     271                        
CTRIA3       389       1     259     244     271                        
$ ... 88 like lines cut
ENDDATA
