ID C:\Users\Dima\Lame3d2\Mpl,FEMAP
SOL SESTATICS
TIME 10000
CEND
  ECHO = NONE
  DISPLACEMENT(PLOT) = ALL
  SPCFORCE(PLOT) = ALL
  OLOAD(PLOT) = ALL
  FORCE(PLOT,CORNER) = ALL
  STRESS(PLOT,CORNER) = ALL
BEGIN BULK
$ ***************************************************************************
$   Written by : FEMAP
$   Version    : 7.00
$   Translator : MSC/NASTRAN
$   From Model : C:\Users\Dima\Lame3d2\Mpls_all\Exe\Box2d_homog\Solid\model.mod
$   Date       : Thu Jun 14 17:26:32 2007
$ ***************************************************************************
$
PARAM,POST,-1
PARAM,OGEOM,NO
PARAM,AUTOSPC,YES
PARAM,GRDPNT,0
CORD2C         1       0      0.      0.      0.      0.      0.      1.+FEMAPC1
+FEMAPC1      1.      0.      1.
CORD2S         2       0      0.      0.      0.      0.      0.      1.+FEMAPC2
+FEMAPC2      1.      0.      1.
$ FEMAP Load Set 111 : Inclusion BSOURCE 0.5443 0.5443 0.319 0.319 0.
$ FEMAP Property 1 : Matrix
PSHELL         1       1      0.       1               1              0.
$ FEMAP Property 2 : Fulleren
PSHELL         2       1      0.       1               1              0.
$ FEMAP Material 1 : mat
MAT1           1                              0.      0.      0.        
GRID           1       0 0.31873 0.76987      0.       0        
GRID           2       0 0.29752 0.79108      0.       0        
GRID           5       0  0.2253  0.5443      0.       0        
GRID           7       0  0.1953  0.5443      0.       0        
GRID           8       0 0.22187 0.67786      0.       0        
GRID          12       0      0.  1.0886      0.       0        
GRID          13       0      0. 0.95253      0.       0        
GRID          14       0      0. 0.81645      0.       0        
GRID          15       0      0. 0.68038      0.       0        
GRID          17       0  0.1196 0.79376      0.       0        
GRID          18       00.072845 0.91206      0.       0        
GRID          19       0 0.10489 0.67297      0.       0        
GRID          21       0 0.43152 0.65708      0.       0        
GRID          23       0 0.24958 0.66638      0.       0        
GRID          26       0  0.3553 0.62259      0.       0        
GRID          31       0  0.5443  0.8933      0.       0        
GRID          32       0 0.41074 0.86673      0.       0        
GRID          33       0 0.19835 0.89025      0.       0        
GRID          34       00.099173 0.98943      0.       0        
GRID          36       0 0.13607  1.0886      0.       0        
$ ... 93 like lines cut
CQUAD4         1       1       1       2       8      23                
CQUAD4         2       1      23       8       7       5                
CQUAD4         3       1      34      12      13      18                
CQUAD4         4       1      18      13      14      17                
CQUAD4         5       1      33      34      18      17                
CQUAD4         6       1       8       2      33      17                
CQUAD4         7       1      17      14      15      19                
CQUAD4         8       1       7       8      17      19                
CQUAD4         9       1       7      19      15      62                
CQUAD4        10       2      23       5      71      26                
CQUAD4        11       2      21       1      23      26                
CQUAD4        12       2      89      21      26      71                
CQUAD4        13       1       2       1      46      32                
CQUAD4        14       1      32      46     139      31                
CQUAD4        15       1      12      34      41      36                
CQUAD4        16       1      36      41      40      37                
CQUAD4        17       1      34      33      40      41                
CQUAD4        18       1       2      32      40      33                
CQUAD4        19       1      37      40      42      38                
CQUAD4        20       1      32      31      42      40                
$ ... 76 like lines cut
ENDDATA
