ID C:\Users\Dima\Lame3d2\Mpl,FEMAP
SOL SESTATICS
TIME 10000
CEND
  ECHO = NONE
  DISPLACEMENT(PLOT) = ALL
  SPCFORCE(PLOT) = ALL
  OLOAD(PLOT) = ALL
  FORCE(PLOT,CORNER) = ALL
  STRESS(PLOT,CORNER) = ALL
BEGIN BULK
$ ***************************************************************************
$   Written by : FEMAP
$   Version    : 7.00
$   Translator : MSC/NASTRAN
$   From Model : C:\Users\Dima\Lame3d2\Mpls_all\Exe\Box2d_homog\Solid\model.mod
$   Date       : Thu Jun 14 18:15:40 2007
$ ***************************************************************************
$
PARAM,POST,-1
PARAM,OGEOM,NO
PARAM,AUTOSPC,YES
PARAM,GRDPNT,0
CORD2C         1       0      0.      0.      0.      0.      0.      1.+FEMAPC1
+FEMAPC1      1.      0.      1.
CORD2S         2       0      0.      0.      0.      0.      0.      1.+FEMAPC2
+FEMAPC2      1.      0.      1.
$ FEMAP Load Set 111 : Inclusion BSOURCE 0.3488 0.3488 0.319 0.319 0.
$ FEMAP Property 1 : Matrix
PSHELL         1       1      0.       1               1              0.
$ FEMAP Property 2 : Fulleren
PSHELL         2       1      0.       1               1              0.
$ FEMAP Material 1 : mat
MAT1           1                              0.      0.      0.        
GRID           2       00.044844  0.4747      0.       0        
GRID           3       0 0.11616 0.58144      0.       0        
GRID           7       0 0.23253  0.6976      0.       0        
GRID           8       0 0.11627  0.6976      0.       0        
GRID           9       0      0.  0.6976      0.       0        
GRID          10       0      0. 0.58133      0.       0        
GRID          11       0      0. 0.46507      0.       0        
GRID          12       0      0.  0.3488      0.       0        
GRID          15       0  0.2229 0.65276      0.       0        
GRID          21       0 0.12323 0.57437      0.       0        
GRID          22       0 0.22672 0.64352      0.       0        
GRID          25       0  0.3488 0.56147      0.       0        
GRID          29       00.054082 0.47088      0.       0        
GRID          31       0 0.13613  0.3488      0.       0        
GRID          33       0 0.15363 0.44789      0.       0        
GRID          34       0 0.24846 0.44896      0.       0        
GRID          35       0 0.24996 0.54422      0.       0        
GRID          36       0 0.17527 0.52209      0.       0        
GRID          38       00.044844  0.2229      0.       0        
GRID          42       0  0.3488      0.      0.       0        
$ ... 61 like lines cut
CQUAD4         1       1      15      86      78       7                
CQUAD4         2       1       3      15       7       8                
CQUAD4         4       1       2       3      10      11                
CQUAD4         5       1      54       2      11      12                
CQUAD4         6       1      98      86      15      22                
CQUAD4         7       1      22      15       3      21                
CQUAD4         8       1      21       3       2      29                
CQUAD4         9       1      29       2      54      55                
CQUAD4        10       2      21      29      33      36                
CQUAD4        11       2      36      33      34      35                
CQUAD4        12       2      22      21      36      35                
CQUAD4        13       2      25      98      22      35                
CQUAD4        14       2      96      25      35      34                
CQUAD4        15       2      33      29      55      31                
CQUAD4        16       2      34      33      31      68                
CQUAD4        17       2      59      96      34      68                
CTRIA3        18       1      10       3       9                        
CTRIA3        19       1       3       8       9                        
CQUAD4        20       1     113      51      43      42                
CQUAD4        21       1      51      52      44      43                
CQUAD4        22       1      52      38      47      46                
CQUAD4        23       1      38      54      12      47                
CQUAD4        24       1     113     134      63      51                
CQUAD4        25       1      51      63      64      52                
CQUAD4        26       1      52      64      65      38                
CQUAD4        27       1      38      65      55      54                
CQUAD4        28       2      65      64      72      69                
CQUAD4        29       2      69      72      71      70                
CQUAD4        30       2      64      63      71      72                
CQUAD4        31       2     134     133      71      63                
CQUAD4        32       2     133     132      70      71                
CQUAD4        33       2      65      69      31      55                
CQUAD4        34       2      69      70      68      31                
CQUAD4        35       2     132      59      68      70                
CTRIA3        36       1      52      46      45                        
CTRIA3        37       1      44      52      45                        
CQUAD4        38       1      86      87      79      78                
CQUAD4        39       1      87      88      80      79                
CQUAD4        40       1      88      89      83      82                
CQUAD4        41       1      89      73      84      83                
CQUAD4        42       1      86      98      94      87                
CQUAD4        43       1      87      94     100      88                
CQUAD4        44       1      88     100     101      89                
CQUAD4        45       1      89     101      91      73                
CQUAD4        46       2     101     100     108     105                
CQUAD4        47       2     105     108     107     106                
CQUAD4        48       2     100      94     107     108                
CQUAD4        49       2      98      25     107      94                
CQUAD4        50       2      25      96     106     107                
CQUAD4        51       2     101     105     139      91                
CQUAD4        52       2     105     106     104     139                
CQUAD4        53       2      96      59     104     106                
CTRIA3        54       1      88      82      81                        
CTRIA3        55       1      80      88      81                        
CQUAD4        56       1     123     113      42     115                
CQUAD4        57       1     124     123     115     116                
CQUAD4        58       1     125     124     118     119                
CQUAD4        59       1      73     125     119      84                
CQUAD4        60       1     134     113     123     135                
CQUAD4        61       1     135     123     124     129                
CQUAD4        62       1     129     124     125     128                
CQUAD4        63       1     128     125      73      91                
CQUAD4        64       2     129     128     141     144                
CQUAD4        65       2     144     141     142     143                
CQUAD4        66       2     135     129     144     143                
CQUAD4        67       2     133     134     135     143                
CQUAD4        68       2     132     133     143     142                
CQUAD4        69       2     141     128      91     139                
CQUAD4        70       2     142     141     139     104                
CQUAD4        71       2      59     132     142     104                
CTRIA3        72       1     118     124     117                        
CTRIA3        73       1     124     116     117                        
ENDDATA
