ID C:\Users\Dima\Lame3d2\Mpl,FEMAP
SOL SESTATICS
TIME 10000
CEND
  ECHO = NONE
  DISPLACEMENT(PLOT) = ALL
  SPCFORCE(PLOT) = ALL
  OLOAD(PLOT) = ALL
  FORCE(PLOT,CORNER) = ALL
  STRESS(PLOT,CORNER) = ALL
BEGIN BULK
$ ***************************************************************************
$   Written by : FEMAP
$   Version    : 7.00
$   Translator : MSC/NASTRAN
$   From Model : C:\Users\Dima\Lame3d2\Mpls_all\Exe\Box2d_homog\Solid\model.mod
$   Date       : Thu Jun 14 17:45:45 2007
$ ***************************************************************************
$
PARAM,POST,-1
PARAM,OGEOM,NO
PARAM,AUTOSPC,YES
PARAM,GRDPNT,0
CORD2C         1       0      0.      0.      0.      0.      0.      1.+FEMAPC1
+FEMAPC1      1.      0.      1.
CORD2S         2       0      0.      0.      0.      0.      0.      1.+FEMAPC2
+FEMAPC2      1.      0.      1.
$ FEMAP Load Set 111 : Inclusion BSOURCE 0.44015 0.44015 0.319 0.319 0.
$ FEMAP Property 1 : Matrix
PSHELL         1       1      0.       1               1              0.
$ FEMAP Property 2 : Fulleren
PSHELL         2       1      0.       1               1              0.
$ FEMAP Material 1 : mat
MAT1           1                              0.      0.      0.        
GRID           4       00.096685 0.78362      0.       0        
GRID           5       0      0.  0.8803      0.       0        
GRID           6       0      0. 0.73358      0.       0        
GRID           7       0      0. 0.58687      0.       0        
GRID           8       0      0. 0.44015      0.       0        
GRID           9       00.071467 0.69697      0.       0        
GRID          11       0 0.19337 0.68693      0.       0        
GRID          12       0 0.11772 0.57371      0.       0        
GRID          14       0 0.12115 0.44015      0.       0        
GRID          15       0 0.14543 0.56223      0.       0        
GRID          22       0 0.25115 0.51844      0.       0        
GRID          24       0 0.30659 0.76258      0.       0        
GRID          28       0 0.14672  0.8803      0.       0        
GRID          29       0 0.29343  0.8803      0.       0        
GRID          31       0 0.18333 0.80883      0.       0        
GRID          32       0 0.21458 0.66572      0.       0        
GRID          37       0 0.31807 0.73487      0.       0        
GRID          39       0 0.32737 0.55293      0.       0        
GRID          44       0 0.36186 0.62915      0.       0        
GRID          45       0 0.09115 0.44015      0.       0        
$ ... 65 like lines cut
CQUAD4         1       1       4       5       6       9                
CQUAD4         2       1      12      11       4       9                
CQUAD4         3       1      12       9       6       7                
CQUAD4         4       1      45      12       7       8                
CQUAD4         5       1      32      11      12      15                
CQUAD4         6       1      15      12      45      14                
CQUAD4         7       2      15      14      65      22                
CQUAD4         8       2      39      32      15      22                
CQUAD4         9       2      60      39      22      65                
CQUAD4        10       1       5       4      31      28                
CQUAD4        11       1      11      24      31       4                
CQUAD4        12       1      31      24      29      28                
CQUAD4        13       1      24     111     118      29                
CQUAD4        14       1      11      32      37      24                
CQUAD4        15       1      24      37     130     111                
CQUAD4        16       2     130      37      44     131                
CQUAD4        17       2      32      39      44      37                
CQUAD4        18       2      39      60     131      44                
CQUAD4        19       1      49      70      53      50                
CQUAD4        20       1      47      56      53      70                
$ ... 52 like lines cut
ENDDATA
