ID C:\Users\Dima\Lame3d2\Mpl,FEMAP
SOL SESTATICS
TIME 10000
CEND
  ECHO = NONE
  DISPLACEMENT(PLOT) = ALL
  SPCFORCE(PLOT) = ALL
  OLOAD(PLOT) = ALL
  FORCE(PLOT,CORNER) = ALL
  STRESS(PLOT,CORNER) = ALL
BEGIN BULK
$ ***************************************************************************
$   Written by : FEMAP
$   Version    : 7.00
$   Translator : MSC/NASTRAN
$   From Model : C:\Users\Dima\Lame3d2\Mpls_all\Exe\Box2d_homog\Solid\model.mod
$   Date       : Thu Jun 14 18:02:57 2007
$ ***************************************************************************
$
PARAM,POST,-1
PARAM,OGEOM,NO
PARAM,AUTOSPC,YES
PARAM,GRDPNT,0
CORD2C         1       0      0.      0.      0.      0.      0.      1.+FEMAPC1
+FEMAPC1      1.      0.      1.
CORD2S         2       0      0.      0.      0.      0.      0.      1.+FEMAPC2
+FEMAPC2      1.      0.      1.
$ FEMAP Load Set 111 : Inclusion BSOURCE 0.3821 0.3821 0.319 0.319 0.
$ FEMAP Property 1 : Matrix
PSHELL         1       1      0.       1               1              0.
$ FEMAP Property 2 : Fulleren
PSHELL         2       1      0.       1               1              0.
$ FEMAP Material 1 : mat
MAT1           1                              0.      0.      0.        
GRID           3       0 0.25237  0.6953      0.       0        
GRID           5       00.068905 0.51183      0.       0        
GRID           7       0  0.0631  0.3821      0.       0        
GRID           9       0 0.15653 0.60767      0.       0        
GRID          13       0 0.14239 0.62181      0.       0        
GRID          15       0  0.3821  0.7211      0.       0        
GRID          16       0  0.3821  0.7642      0.       0        
GRID          17       0 0.25473  0.7642      0.       0        
GRID          18       0 0.12737  0.7642      0.       0        
GRID          19       0      0.  0.7642      0.       0        
GRID          20       0      0. 0.63683      0.       0        
GRID          21       0      0. 0.50947      0.       0        
GRID          22       0      0.  0.3821      0.       0        
GRID          25       0  0.3821 0.59477      0.       0        
GRID          27       0 0.26002 0.67682      0.       0        
GRID          29       00.087382 0.50418      0.       0        
GRID          33       0 0.18693 0.48119      0.       0        
GRID          34       0 0.28176 0.48226      0.       0        
GRID          35       0 0.28326 0.57752      0.       0        
GRID          36       0 0.20857 0.55539      0.       0        
$ ... 61 like lines cut
CQUAD4         1       1      98      15       3      27                
CQUAD4         2       1      27       3      13       9                
CQUAD4         3       1       9      13       5      29                
CQUAD4         4       1      29       5      47       7                
CQUAD4         5       1       3      15      16      17                
CQUAD4         6       1      13       3      17      18                
CQUAD4         7       1      13      18      19      20                
CQUAD4         8       1       5      13      20      21                
CQUAD4         9       1      47       5      21      22                
CQUAD4        10       2       9      29      33      36                
CQUAD4        11       2      36      33      34      35                
CQUAD4        12       2      27       9      36      35                
CQUAD4        13       2      25      98      27      35                
CQUAD4        14       2      96      25      35      34                
CQUAD4        15       2      33      29       7      67                
CQUAD4        16       2      34      33      67      68                
CQUAD4        17       2     131      96      34      68                
CQUAD4        18       1     110     134      46      39                
CQUAD4        19       1      39      46      45      49                
CQUAD4        20       1      49      45      44      41                
$ ... 48 like lines cut
ENDDATA
