ID c:\Users\Dima\Lame3d2\IDE,FEMAP
SOL SESTATICS
TIME 10000
CEND
  ECHO = NONE
  DISPLACEMENT(PLOT) = ALL
  SPCFORCE(PLOT) = ALL
  OLOAD(PLOT) = ALL
  FORCE(PLOT,CORNER) = ALL
  STRESS(PLOT,CORNER) = ALL
BEGIN BULK
$ ***************************************************************************
$   Written by : FEMAP
$   Version    : 7.00
$   Translator : MSC/NASTRAN
$   From Model : c:\Users\Dima\Lame3d2\IDENT_17may2006\Ident\Exe\box2d_fulleren\Solid\model.MOD
$   Date       : Sat May 20 06:29:58 2006
$ ***************************************************************************
$
PARAM,POST,-1
PARAM,OGEOM,NO
PARAM,AUTOSPC,YES
PARAM,GRDPNT,0
CORD2C         1       0      0.      0.      0.      0.      0.      1.+FEMAPC1
+FEMAPC1      1.      0.      1.
CORD2S         2       0      0.      0.      0.      0.      0.      1.+FEMAPC2
+FEMAPC2      1.      0.      1.
$ FEMAP Load Set 111 : Inclusion BSOURCE 0.85425 0.85425 0.623 0.623 0.
$ FEMAP Property 1 : Matrix
PSHELL         1       1      0.       1               1              0.
$ FEMAP Property 2 : Fulleren
PSHELL         2       1      0.       1               1              0.
$ FEMAP Material 1 : Untitled
MAT1           1     7.8     2.3     0.3      0.      0.      0.        
GRID          24       0      0.  1.7085      0.       0        
GRID          25       0      0. 1.46443      0.       0        
GRID          26       0      0. 1.22036      0.       0        
GRID          27       0      0. 0.97629      0.       0        
GRID          28       0      0. 0.73221      0.       0        
GRID          29       0      0. 0.48814      0.       0        
GRID          30       0      0. 0.24407      0.       0        
GRID          31       0      0.      0.      0.       0        
GRID          32       0 0.24407      0.      0.       0        
GRID          33       0 0.48814      0.      0.       0        
GRID          34       0 0.73221      0.      0.       0        
GRID          35       0 0.97629      0.      0.       0        
GRID          36       0 1.22036      0.      0.       0        
GRID          37       0 1.46443      0.      0.       0        
GRID          38       0  1.7085      0.      0.       0        
GRID          39       0  1.7085 0.24407      0.       0        
GRID          40       0  1.7085 0.48814      0.       0        
GRID          41       0  1.7085 0.73221      0.       0        
GRID          42       0  1.7085 0.97629      0.       0        
GRID          43       0  1.7085 1.22036      0.       0        
$ ... 46 like lines cut
CTRIA3       124       1      87      33      34                        
CTRIA3       125       1      88      87      34                        
CTRIA3       126       1      88      34      35                        
CTRIA3       127       1      63      88      35                        
CTRIA3       128       1      63      35      36                        
CTRIA3       129       1      36      37      68                        
CTRIA3       130       1      63      36      68                        
CTRIA3       131       1      62      63      68                        
CTRIA3       132       1      39      40      69                        
CTRIA3       133       1      37      38      39                        
CTRIA3       134       1      68      37      39                        
CTRIA3       135       1      68      39      69                        
CTRIA3       136       1      62      68      69                        
CTRIA3       137       1      61      62      69                        
CTRIA3       138       1      61      69      40                        
CTRIA3       139       1      61      40      41                        
CTRIA3       140       1      60      61      41                        
CTRIA3       141       1      60      41      42                        
CTRIA3       142       1      77      60      42                        
CTRIA3       143       1      77      42      43                        
$ ... 82 like lines cut
ENDDATA
