ID C:\Users\Dima\Lame3d2\Mpl,FEMAP
SOL SESTATICS
TIME 10000
CEND
  ECHO = NONE
  DISPLACEMENT(PLOT) = ALL
  SPCFORCE(PLOT) = ALL
  OLOAD(PLOT) = ALL
  FORCE(PLOT,CORNER) = ALL
  STRESS(PLOT,CORNER) = ALL
BEGIN BULK
$ ***************************************************************************
$   Written by : FEMAP
$   Version    : 7.00
$   Translator : MSC/NASTRAN
$   From Model : C:\Users\Dima\Lame3d2\Mpls_all\Exe\Box2d_homog\Solid\model.mod
$   Date       : Wed Jun 13 17:15:30 2007
$ ***************************************************************************
$
PARAM,POST,-1
PARAM,OGEOM,NO
PARAM,AUTOSPC,YES
PARAM,GRDPNT,0
CORD2C         1       0      0.      0.      0.      0.      0.      1.+FEMAPC1
+FEMAPC1      1.      0.      1.
CORD2S         2       0      0.      0.      0.      0.      0.      1.+FEMAPC2
+FEMAPC2      1.      0.      1.
$ FEMAP Load Set 111 : Inclusion BSOURCE 0.85425 0.85425 0.623 0.623 0.
$ FEMAP Property 1 : Matrix
PSHELL         1       1      0.       1               1              0.
$ FEMAP Property 2 : Fulleren
PSHELL         2       1      0.       1               1              0.
$ FEMAP Material 1 : mat
MAT1           1                              0.      0.      0.        
GRID           1       0      0.      0.      0.       0        
GRID           2       0 0.21356      0.      0.       0        
GRID           3       0 0.42712      0.      0.       0        
GRID           4       0 0.64069      0.      0.       0        
GRID          11       0 0.18125 0.85425      0.       0        
GRID          12       0      0. 0.85425      0.       0        
GRID          13       0      0. 0.64069      0.       0        
GRID          14       0      0. 0.42712      0.       0        
GRID          15       0      0. 0.21356      0.       0        
GRID          16       0 0.28704 0.22567      0.       0        
GRID          17       0 0.45358 0.14654      0.       0        
GRID          22       0 0.35023 0.48806      0.       0        
GRID          26       0 0.21419 0.64628      0.       0        
GRID          27       0 0.30978 0.45867      0.       0        
GRID          28       0 0.45867 0.30978      0.       0        
GRID          29       0 0.64628 0.21419      0.       0        
GRID          31       0 0.85425 0.43892      0.       0        
GRID          33       0 0.85425 0.85425      0.       0        
GRID          34       0 0.64658 0.85425      0.       0        
GRID          37       0 0.26174 0.66173      0.       0        
$ ... 81 like lines cut
CQUAD4         1       1       4      48      49      29                
CQUAD4         2       1      29      28      16      17                
CQUAD4         3       1       3       4      29      17                
CQUAD4         4       1       2       3      17      16                
CQUAD4         5       1      26      11      12      13                
CQUAD4         6       1      27      26      13      14                
CTRIA3         7       1      16      28      27                        
CQUAD4         8       1      16      27      14      15                
CQUAD4         9       1       1       2      16      15                
CQUAD4        10       1      49      62      40      29                
CQUAD4        11       1      29      40      39      28                
CQUAD4        12       1      28      39      22      27                
CQUAD4        13       1      27      22      37      26                
CQUAD4        14       1      26      37     110      11                
CQUAD4        15       2     121     110      37      41                
CQUAD4        16       2      34     121      41      42                
CQUAD4        17       2      75      33      34      42                
CTRIA3        18       2      41      37      22                        
CTRIA3        19       2      39      40      43                        
CQUAD4        20       2      42      41      39      43                
CQUAD4        21       2      31      75      42      43                
CQUAD4        22       2      62      31      43      40                
CTRIA3        23       2      41      22      39                        
CQUAD4        24       1      48      47      72      49                
CQUAD4        25       1      71      72      60      59                
CQUAD4        26       1      47      46      60      72                
CQUAD4        27       1      46      45      59      60                
CQUAD4        28       1      54      69      56     141                
CQUAD4        29       1      69      70      57      56                
CTRIA3        30       1      71      59      70                        
CQUAD4        31       1      70      59      58      57                
CQUAD4        32       1      45      44      58      59                
CQUAD4        33       1      62      49      72      63                
CQUAD4        34       1      63      72      71      82                
CQUAD4        35       1      82      71      70      81                
CQUAD4        36       1      81      70      69      80                
CQUAD4        37       1      80      69      54      79                
CQUAD4        38       2      79     164      84      80                
CQUAD4        39       2     164      77      85      84                
CQUAD4        40       2      33      75      85      77                
CTRIA3        41       2      80      84      81                        
CTRIA3        42       2      63      82      86                        
CQUAD4        43       2      84      85      86      82                
CQUAD4        44       2      75      31      86      85                
CQUAD4        45       2      31      62      63      86                
CTRIA3        46       2      81      84      82                        
CQUAD4        47       1      91      90      93     104                
CQUAD4        48       1     114      93     103     102                
CQUAD4        49       1      90      89     103      93                
CQUAD4        50       1      89      88     102     103                
CQUAD4        51       1      11      96      99      12                
CQUAD4        52       1      96     113     100      99                
CTRIA3        53       1     114     102     113                        
CQUAD4        54       1     113     102     101     100                
CQUAD4        55       1      88      87     101     102                
CQUAD4        56       1     148     104      93     126                
CQUAD4        57       1     126      93     114     125                
CQUAD4        58       1     125     114     113     108                
CQUAD4        59       1     108     113      96     109                
CQUAD4        60       1     109      96      11     110                
CQUAD4        61       2     110     121     127     109                
CQUAD4        62       2     121      34     128     127                
CQUAD4        63       2      33     118     128      34                
CTRIA3        64       2     109     127     108                        
CTRIA3        65       2     126     125     129                        
CQUAD4        66       2     127     128     129     125                
CQUAD4        67       2     118     117     129     128                
CQUAD4        68       2     117     148     126     129                
CTRIA3        69       2     108     127     125                        
CQUAD4        70       1     133      91     104     158                
CQUAD4        71       1     158     137     145     146                
CQUAD4        72       1     132     133     158     146                
CQUAD4        73       1     131     132     146     145                
CQUAD4        74       1     155      54     141     142                
CQUAD4        75       1     138     155     142     143                
CTRIA3        76       1     145     137     138                        
CQUAD4        77       1     145     138     143     144                
CQUAD4        78       1     130     131     145     144                
CQUAD4        79       1     104     148     149     158                
CQUAD4        80       1     158     149     150     137                
CQUAD4        81       1     137     150     151     138                
CQUAD4        82       1     138     151     152     155                
CQUAD4        83       1     155     152      79      54                
CQUAD4        84       2     164      79     152     170                
CQUAD4        85       2      77     164     170     171                
CQUAD4        86       2     118      33      77     171                
CTRIA3        87       2     170     152     151                        
CTRIA3        88       2     150     149     172                        
CQUAD4        89       2     171     170     150     172                
CQUAD4        90       2     117     118     171     172                
CQUAD4        91       2     148     117     172     149                
CTRIA3        92       2     170     151     150                        
ENDDATA
