ID c:\Users\Dima\Lame3d2\IDE,FEMAP
SOL SESTATICS
TIME 10000
CEND
  ECHO = NONE
  DISPLACEMENT(PLOT) = ALL
  SPCFORCE(PLOT) = ALL
  OLOAD(PLOT) = ALL
  FORCE(PLOT,CORNER) = ALL
  STRESS(PLOT,CORNER) = ALL
BEGIN BULK
$ ***************************************************************************
$   Written by : FEMAP
$   Version    : 7.00
$   Translator : MSC/NASTRAN
$   From Model : c:\Users\Dima\Lame3d2\IDENT_17may2006\Ident\Exe\box2d_fulleren\Solid\model.MOD
$   Date       : Sat May 20 06:39:28 2006
$ ***************************************************************************
$
PARAM,POST,-1
PARAM,OGEOM,NO
PARAM,AUTOSPC,YES
PARAM,GRDPNT,0
CORD2C         1       0      0.      0.      0.      0.      0.      1.+FEMAPC1
+FEMAPC1      1.      0.      1.
CORD2S         2       0      0.      0.      0.      0.      0.      1.+FEMAPC2
+FEMAPC2      1.      0.      1.
$ FEMAP Load Set 111 : Inclusion BSOURCE 0.73705 0.73705 0.623 0.623 0.
$ FEMAP Property 1 : Matrix
PSHELL         1       1      0.       1               1              0.
$ FEMAP Property 2 : Fulleren
PSHELL         2       1      0.       1               1              0.
$ FEMAP Material 1 : Untitled
MAT1           1     7.8     2.3     0.3      0.      0.      0.        
GRID          24       0      0.  1.4741      0.       0        
GRID          25       0      0. 1.22842      0.       0        
GRID          26       0      0. 0.98273      0.       0        
GRID          27       0      0. 0.73705      0.       0        
GRID          28       0      0. 0.49137      0.       0        
GRID          29       0      0. 0.24568      0.       0        
GRID          30       0      0.      0.      0.       0        
GRID          31       0 0.24568      0.      0.       0        
GRID          32       0 0.49137      0.      0.       0        
GRID          33       0 0.73705      0.      0.       0        
GRID          34       0 0.98273      0.      0.       0        
GRID          35       0 1.22842      0.      0.       0        
GRID          36       0  1.4741      0.      0.       0        
GRID          37       0  1.4741 0.24568      0.       0        
GRID          38       0  1.4741 0.49137      0.       0        
GRID          39       0  1.4741 0.73705      0.       0        
GRID          40       0  1.4741 0.98273      0.       0        
GRID          41       0  1.4741 1.22842      0.       0        
GRID          42       0  1.4741  1.4741      0.       0        
GRID          43       0 1.22842  1.4741      0.       0        
$ ... 38 like lines cut
CTRIA3       124       1      44      45      52                        
CTRIA3       125       1      44      52      53                        
CTRIA3       126       1      43      44      53                        
CTRIA3       127       1      43      53      70                        
CTRIA3       128       1      43      70      64                        
CTRIA3       129       1      42      43      64                        
CTRIA3       130       1      41      42      64                        
CTRIA3       131       1      41      64      70                        
CTRIA3       132       1      41      70      55                        
CTRIA3       133       1      40      41      55                        
CTRIA3       134       1      40      55      56                        
CTRIA3       135       1      39      40      56                        
CTRIA3       136       1      38      39      56                        
CTRIA3       137       1      38      56      83                        
CTRIA3       138       1      37      38      83                        
CTRIA3       139       1      37      83      58                        
CTRIA3       140       1      37      58      65                        
CTRIA3       141       1      36      37      65                        
CTRIA3       142       1      35      36      65                        
CTRIA3       143       1      35      65      58                        
$ ... 70 like lines cut
ENDDATA
