ID C:\Users\Dima\Lame3d2\Mpl,FEMAP
SOL SESTATICS
TIME 10000
CEND
  ECHO = NONE
  DISPLACEMENT(PLOT) = ALL
  SPCFORCE(PLOT) = ALL
  OLOAD(PLOT) = ALL
  FORCE(PLOT,CORNER) = ALL
  STRESS(PLOT,CORNER) = ALL
BEGIN BULK
$ ***************************************************************************
$   Written by : FEMAP
$   Version    : 7.00
$   Translator : MSC/NASTRAN
$   From Model : C:\Users\Dima\Lame3d2\Mpls_all\Exe\Box2d_homog\Solid\model.mod
$   Date       : Wed May 30 08:58:46 2007
$ ***************************************************************************
$
PARAM,POST,-1
PARAM,OGEOM,NO
PARAM,AUTOSPC,YES
PARAM,GRDPNT,0
CORD2C         1       0      0.      0.      0.      0.      0.      1.+FEMAPC1
+FEMAPC1      1.      0.      1.
CORD2S         2       0      0.      0.      0.      0.      0.      1.+FEMAPC2
+FEMAPC2      1.      0.      1.
$ FEMAP Load Set 111 : Inclusion BSOURCE 0.73705 0.73705 0.623 0.623 0.
$ FEMAP Property 1 : Matrix
PSHELL         1       1      0.       1               1              0.
$ FEMAP Property 2 : Fulleren
PSHELL         2       1      0.       1               1              0.
$ FEMAP Material 1 : mat
MAT1           1                              0.      0.      0.        
GRID          95       0 0.29633 0.22843      0.       0        
GRID          97       0 0.64127  0.0709      0.       0        
GRID          99       0 1.01662 0.12487      0.       0        
GRID         105       0 1.32956 0.54453      0.       0        
GRID         110       0 0.54453 0.14454      0.       0        
GRID         111       0 0.37086 0.23303      0.       0        
GRID         112       0 0.23303 0.37086      0.       0        
GRID         114       0  1.4741      0.      0.       0        
GRID         115       0  1.4741 0.18426      0.       0        
GRID         116       0  1.4741 0.36852      0.       0        
GRID         117       0  1.4741 0.55279      0.       0        
GRID         118       0  1.4741 0.73705      0.       0        
GRID         119       0 1.41005 0.73705      0.       0        
GRID         120       0 1.38279 0.54744      0.       0        
GRID         121       0 1.30321  0.3732      0.       0        
GRID         122       0 1.17777 0.22843      0.       0        
GRID         124       0 0.83283  0.0709      0.       0        
GRID         126       0 0.45748 0.12487      0.       0        
GRID         128       0 0.17089  0.3732      0.       0        
GRID         129       00.091311 0.54744      0.       0        
$ ... 111 like lines cut
CQUAD4        61       1     120     119     248     105                
CQUAD4        62       1     121     120     105     168                
CQUAD4        63       1     122     121     168     167                
CQUAD4        64       1      99     122     167     166                
CTRIA3        65       1     124      99     166                        
CTRIA3        66       1      97     124     165                        
CTRIA3        67       1     126      97     110                        
CQUAD4        68       1      95     126     110     111                
CQUAD4        69       1     128      95     111     112                
CQUAD4        70       1     129     128     112     161                
CQUAD4        71       1     160     186     129     161                
CTRIA3        72       1     124     166     165                        
CTRIA3        73       1      97     165     110                        
CQUAD4        74       1     129     186     225     132                
CQUAD4        75       1     128     129     132     133                
CQUAD4        76       1     133     134     142     145                
CQUAD4        77       1     145     142     143     144                
CQUAD4        78       1     128     133     145     144                
CQUAD4        79       1      95     128     144     143                
CQUAD4        80       1     135     136     146     147                
CQUAD4        81       1     142     134     135     147                
CQUAD4        82       1     143     142     147     146                
CQUAD4        83       1     126      95     143     146                
CQUAD4        84       1     126     146     136     137                
CQUAD4        85       1      97     126     137     138                
CQUAD4        86       1     124      97     138     139                
CQUAD4        87       1     117     118     119     120                
CQUAD4        88       1     116     117     120     121                
CQUAD4        89       1     121     122     148     150                
CQUAD4        90       1     150     148     149     151                
CQUAD4        91       1     116     121     150     151                
CQUAD4        92       1     115     116     151     149                
CQUAD4        93       1      99     124     139     140                
$ ... 31 like lines cut
CTRIA3       125       1     193     192     202                        
CTRIA3       126       1     192     219     203                        
CTRIA3       127       1     219     220     258                        
CQUAD4       128       1     220     189     257     258                
CQUAD4       129       1     189     188     256     257                
CQUAD4       130       1     188     187     255     256                
CQUAD4       131       1     186     160     255     187                
CTRIA3       132       1     202     192     203                        
CTRIA3       133       1     203     219     258                        
CQUAD4       134       1     186     187     226     225                
CQUAD4       135       1     187     188     227     226                
CQUAD4       136       1     228     227     239     236                
CQUAD4       137       1     236     239     238     237                
CQUAD4       138       1     227     188     238     239                
CQUAD4       139       1     188     189     237     238                
CQUAD4       140       1     230     229     241     240                
CQUAD4       141       1     228     236     241     229                
CQUAD4       142       1     236     237     240     241                
CQUAD4       143       1     189     220     240     237                
CQUAD4       144       1     240     220     231     230                
CQUAD4       145       1     220     219     232     231                
CQUAD4       146       1     219     192     233     232                
CQUAD4       147       1     118     211     196     119                
CQUAD4       148       1     211     210     215     196                
CQUAD4       149       1     216     215     244     242                
CQUAD4       150       1     242     244     245     243                
CQUAD4       151       1     215     210     245     244                
CQUAD4       152       1     210     209     243     245                
CQUAD4       153       1     192     193     234     233                
$ ... 27 like lines cut
ENDDATA
