ID C:\Users\Dima\Lame3d2\Mpl,FEMAP
SOL SESTATICS
TIME 10000
CEND
  ECHO = NONE
  DISPLACEMENT(PLOT) = ALL
  SPCFORCE(PLOT) = ALL
  OLOAD(PLOT) = ALL
  FORCE(PLOT,CORNER) = ALL
  STRESS(PLOT,CORNER) = ALL
BEGIN BULK
$ ***************************************************************************
$   Written by : FEMAP
$   Version    : 7.00
$   Translator : MSC/NASTRAN
$   From Model : C:\Users\Dima\Lame3d2\Mpls_all\Exe\Box2d_homog\Solid\model.mod
$   Date       : Wed Jun 13 20:15:09 2007
$ ***************************************************************************
$
PARAM,POST,-1
PARAM,OGEOM,NO
PARAM,AUTOSPC,YES
PARAM,GRDPNT,0
CORD2C         1       0      0.      0.      0.      0.      0.      1.+FEMAPC1
+FEMAPC1      1.      0.      1.
CORD2S         2       0      0.      0.      0.      0.      0.      1.+FEMAPC2
+FEMAPC2      1.      0.      1.
$ FEMAP Load Set 111 : Inclusion BSOURCE 1.22205 1.22205 0.894 0.894 0.
$ FEMAP Property 1 : Matrix
PSHELL         1       1      0.       1               1              0.
$ FEMAP Property 2 : Fulleren
PSHELL         2       1      0.       1               1              0.
$ FEMAP Material 1 : mat
MAT1           1                              0.      0.      0.        
GRID           2       0  0.8608 0.34991      0.       0        
GRID           4       0 0.34991  0.8608      0.       0        
GRID           6       0      0. 1.22205      0.       0        
GRID           7       0      0. 0.91654      0.       0        
GRID           8       0      0. 0.61103      0.       0        
GRID           9       0      0. 0.30551      0.       0        
GRID          10       0      0.      0.      0.       0        
GRID          11       0 0.30551      0.      0.       0        
GRID          12       0 0.61103      0.      0.       0        
GRID          13       0 0.91654      0.      0.       0        
GRID          14       0 1.22205      0.      0.       0        
GRID          15       0 0.35785 0.33475      0.       0        
GRID          16       0 0.23576 0.60226      0.       0        
GRID          17       0 0.69317 0.21208      0.       0        
GRID          18       0 0.94397 0.16325      0.       0        
GRID          22       0 0.55454 0.55454      0.       0        
GRID          27       0  0.5899  0.5899      0.       0        
GRID          28       0  0.3961 0.87993      0.       0        
GRID          30       0 0.92405 1.22205      0.       0        
GRID          35       0 0.87993  0.3961      0.       0        
$ ... 85 like lines cut
CQUAD4         1       1       4     104       6       7                
CQUAD4         2       1       8       9      15      16                
CQUAD4         3       1       4       7       8      16                
CQUAD4         4       1      22       4      16      15                
CQUAD4         5       1      15       9      10      11                
CQUAD4         6       1      15      11      12      17                
CQUAD4         7       1       2      22      15      17                
CQUAD4         8       1      17      12      13      18                
CQUAD4         9       1      43       2      17      18                
CQUAD4        10       1      43      18      13      14                
CQUAD4        11       1     116     104       4      28                
CQUAD4        12       1      28       4      22      27                
CQUAD4        13       1      27      22       2      35                
CQUAD4        14       1      35       2      43      67                
CQUAD4        15       2      79      80      39      41                
CQUAD4        16       2      35      67      79      41                
CQUAD4        17       2      41      39      40      42                
CQUAD4        18       2      27      35      41      42                
CQUAD4        19       2      28      27      42      40                
CQUAD4        20       2     115     116      28      40                
$ ... 68 like lines cut
ENDDATA
