ID C:\Users\Dima\Lame3d2\Mpl,FEMAP
SOL SESTATICS
TIME 10000
CEND
  ECHO = NONE
  DISPLACEMENT(PLOT) = ALL
  SPCFORCE(PLOT) = ALL
  OLOAD(PLOT) = ALL
  FORCE(PLOT,CORNER) = ALL
  STRESS(PLOT,CORNER) = ALL
BEGIN BULK
$ ***************************************************************************
$   Written by : FEMAP
$   Version    : 7.00
$   Translator : MSC/NASTRAN
$   From Model : C:\Users\Dima\Lame3d2\Mpls_all\Exe\Box2d_homog\Solid\model.mod
$   Date       : Wed Jun 13 20:23:29 2007
$ ***************************************************************************
$
PARAM,POST,-1
PARAM,OGEOM,NO
PARAM,AUTOSPC,YES
PARAM,GRDPNT,0
CORD2C         1       0      0.      0.      0.      0.      0.      1.+FEMAPC1
+FEMAPC1      1.      0.      1.
CORD2S         2       0      0.      0.      0.      0.      0.      1.+FEMAPC2
+FEMAPC2      1.      0.      1.
$ FEMAP Load Set 111 : Inclusion BSOURCE 1.5347 1.5347 0.894 0.894 0.
$ FEMAP Property 1 : Matrix
PSHELL         1       1      0.       1               1              0.
$ FEMAP Property 2 : Fulleren
PSHELL         2       1      0.       1               1              0.
$ FEMAP Material 1 : mat
MAT1           1                              0.      0.      0.        
GRID           1       0      0.  3.0694      0.       0        
GRID           2       0      0. 2.68572      0.       0        
GRID           3       0      0. 2.30205      0.       0        
GRID           4       0      0. 1.91837      0.       0        
GRID           5       0      0.  1.5347      0.       0        
GRID           6       0 0.29535  1.5347      0.       0        
GRID           9       0 0.86719 2.20221      0.       0        
GRID          14       0 1.15103  3.0694      0.       0        
GRID          15       0 0.76735  3.0694      0.       0        
GRID          16       0 0.38367  3.0694      0.       0        
GRID          17       0  0.4531 2.70901      0.       0        
GRID          18       0 0.72497 2.47408      0.       0        
GRID          19       0 1.06951 2.71105      0.       0        
GRID          20       0 0.76339 2.83003      0.       0        
GRID          21       0 0.50968 2.27285      0.       0        
GRID          22       0 0.25779 2.23533      0.       0        
GRID          23       0 0.30392 1.89623      0.       0        
GRID          24       0 0.39348  2.4841      0.       0        
GRID          25       0 0.21706 2.46886      0.       0        
GRID          28       0 0.70875 1.87682      0.       0        
$ ... 93 like lines cut
CQUAD4         1       1      56      57      14      19                
CQUAD4         2       1      33      76      56      19                
CQUAD4         3       1      15      16      17      20                
CQUAD4         4       1      19      14      15      20                
CQUAD4         5       1      19      20      17      18                
CQUAD4         6       1       9      33      19      18                
CQUAD4         7       1       6      95      35      23                
CQUAD4         8       1       4       5       6      23                
CQUAD4         9       1      35       9      18      21                
CQUAD4        10       1      23      35      21      22                
CQUAD4        11       1       3       4      23      22                
CQUAD4        12       1      21      18      17      24                
CQUAD4        13       1       2       3      22      25                
CQUAD4        14       1      25      22      21      24                
CQUAD4        15       1       2      25      24      17                
CQUAD4        16       1       1       2      17      16                
CQUAD4        17       1      95      36      28      35                
CQUAD4        18       1      35      28      42       9                
CQUAD4        19       1       9      42      41      33                
CQUAD4        20       1      33      41      40      76                
CTRIA3        21       2      41      42      44                        
CQUAD4        22       2      83      40      41      44                
CQUAD4        23       2      37      82      83      44                
CQUAD4        24       2      36      37      44      28                
CTRIA3        25       2      42      28      44                        
CQUAD4        26       1      57      56      63      58                
CQUAD4        27       1      76      77      63      56                
CQUAD4        28       1      60      59      64      61                
CQUAD4        29       1      58      63      64      59                
CQUAD4        30       1      64      63      62      61                
CQUAD4        31       1      77      53      62      63                
CQUAD4        32       1     139     138      67      79                
CQUAD4        33       1     137      48      67     138                
CQUAD4        34       1      53      79      65      62                
CQUAD4        35       1      79      67      66      65                
CQUAD4        36       1      48      47      66      67                
CQUAD4        37       1      62      65      68      61                
CQUAD4        38       1      47      46      69      66                
CQUAD4        39       1      66      69      68      65                
CQUAD4        40       1      69      46      61      68                
CQUAD4        41       1      46      45      60      61                
CQUAD4        42       1     168     139      79      87                
CQUAD4        43       1      87      79      53      86                
CQUAD4        44       1      86      53      77      85                
CQUAD4        45       1      85      77      76      40                
CTRIA3        46       2      86      85      88                        
CQUAD4        47       2      40      83      88      85                
CQUAD4        48       2      82     169      88      83                
CQUAD4        49       2     169     168      87      88                
CTRIA3        50       2      87      86      88                        
CQUAD4        51       1     101     144     107     102                
CQUAD4        52       1     143     121     107     144                
CQUAD4        53       1     104     103     108     105                
CQUAD4        54       1     102     107     108     103                
CQUAD4        55       1     108     107     106     105                
CQUAD4        56       1     121     122     106     107                
CQUAD4        57       1      95       6     111     123                
CQUAD4        58       1       5      92     111       6                
CQUAD4        59       1     122     123     109     106                
CQUAD4        60       1     123     111     110     109                
CQUAD4        61       1      92      91     110     111                
CQUAD4        62       1     106     109     112     105                
CQUAD4        63       1      91      90     113     110                
CQUAD4        64       1     110     113     112     109                
CQUAD4        65       1     113      90     105     112                
CQUAD4        66       1      90      89     104     105                
CQUAD4        67       1      36      95     123     116                
CQUAD4        68       1     116     123     122     117                
CQUAD4        69       1     117     122     121     129                
CQUAD4        70       1     129     121     143     172                
CTRIA3        71       2     117     129     132                        
CQUAD4        72       2     172     171     132     129                
CQUAD4        73       2      82      37     132     171                
CQUAD4        74       2      37      36     116     132                
CTRIA3        75       2     116     117     132                        
CQUAD4        76       1     144     101     146     151                
CQUAD4        77       1     142     143     144     151                
CQUAD4        78       1     147     148     149     152                
CQUAD4        79       1     151     146     147     152                
CQUAD4        80       1     151     152     149     150                
CQUAD4        81       1     141     142     151     150                
CQUAD4        82       1     138     139     167     155                
CQUAD4        83       1     136     137     138     155                
CQUAD4        84       1     167     141     150     153                
CQUAD4        85       1     155     167     153     154                
CQUAD4        86       1     135     136     155     154                
CQUAD4        87       1     153     150     149     156                
CQUAD4        88       1     134     135     154     157                
CQUAD4        89       1     157     154     153     156                
CQUAD4        90       1     134     157     156     149                
CQUAD4        91       1     133     134     149     148                
CQUAD4        92       1     139     168     175     167                
CQUAD4        93       1     167     175     174     141                
CQUAD4        94       1     141     174     173     142                
CQUAD4        95       1     142     173     172     143                
CTRIA3        96       2     173     174     176                        
CQUAD4        97       2     171     172     173     176                
CQUAD4        98       2     169      82     171     176                
CQUAD4        99       2     168     169     176     175                
CTRIA3       100       2     174     175     176                        
ENDDATA
