ID C:\Users\Dima\Lame3d2\Mpl,FEMAP
SOL SESTATICS
TIME 10000
CEND
  ECHO = NONE
  DISPLACEMENT(PLOT) = ALL
  SPCFORCE(PLOT) = ALL
  OLOAD(PLOT) = ALL
  FORCE(PLOT,CORNER) = ALL
  STRESS(PLOT,CORNER) = ALL
BEGIN BULK
$ ***************************************************************************
$   Written by : FEMAP
$   Version    : 7.00
$   Translator : MSC/NASTRAN
$   From Model : C:\Users\Dima\Lame3d2\Mpls_all\Exe\Box2d_homog\Solid\model2.MOD
$   Date       : Wed Dec 21 22:12:21 2005
$ ***************************************************************************
$
PARAM,POST,-1
PARAM,OGEOM,NO
PARAM,AUTOSPC,YES
PARAM,GRDPNT,0
CORD2C         1       0      0.      0.      0.      0.      0.      1.+FEMAPC1
+FEMAPC1      1.      0.      1.
CORD2S         2       0      0.      0.      0.      0.      0.      1.+FEMAPC2
+FEMAPC2      1.      0.      1.
$ FEMAP Load Set 111 : Inclusion BSOURCE 0.5 0.5 0.25 0.25 0.
$ FEMAP Property 1 : Matrix
PSHELL         1       1      0.       1               1              0.
$ FEMAP Property 2 : Fulleren
PSHELL         2       1      0.       1               1              0.
$ FEMAP Material 1 : Untitled
MAT1           1     7.8     2.3     0.3      0.      0.      0.        
GRID        2525       0      0.      1.      0.       0        
GRID        2526       0      0. 0.83333      0.       0        
GRID        2527       0      0. 0.66667      0.       0        
GRID        2530       0    0.25     0.5      0.       0        
GRID        2533       0     0.5   0.875      0.       0        
GRID        2535       0 0.33333      1.      0.       0        
GRID        2536       0 0.16667      1.      0.       0        
GRID        2537       0 0.33779 0.87468      0.       0        
GRID        2538       0 0.17479 0.85057      0.       0        
GRID        2539       0 0.19321 0.69343      0.       0        
GRID        2540       0 0.34417 0.77298      0.       0        
GRID        2546       0 0.32322 0.67678      0.       0        
GRID        2547       0 0.39941 0.60059      0.       0        
GRID        2548       0      1.      1.      0.       0        
GRID        2549       0      1. 0.83333      0.       0        
GRID        2550       0      1. 0.66667      0.       0        
GRID        2551       0      1.     0.5      0.       0        
GRID        2554       0 0.67678 0.67678      0.       0        
GRID        2555       0     0.5    0.75      0.       0        
GRID        2557       0     0.5      1.      0.       0        
$ ... 41 like lines cut
CQUAD4        71       1    2537    2538    2539    2540                
CQUAD4        72       1    2555    2533    2537    2540                
CTRIA3        73       1    2546    2555    2540                        
CQUAD4        74       1    2575    2530    2546    2539                
CQUAD4        75       1    2527    2574    2575    2539                
CQUAD4        76       1    2526    2527    2539    2538                
CQUAD4        77       1    2537    2533    2557    2535                
CQUAD4        78       1    2538    2537    2535    2536                
CQUAD4        79       1    2525    2526    2538    2536                
CTRIA3        80       1    2546    2540    2539                        
CQUAD4        81       2    2567    2555    2546    2547                
CQUAD4        82       2    2588    2566    2567    2547                
CQUAD4        83       2    2530    2588    2547    2546                
CQUAD4        84       1    2561    2560    2563    2562                
CQUAD4        85       1    2533    2555    2563    2560                
CTRIA3        86       1    2555    2554    2563                        
CQUAD4        87       1    2599    2598    2562    2554                
CQUAD4        88       1    2551    2550    2562    2598                
CQUAD4        89       1    2550    2549    2561    2562                
CQUAD4        90       1    2533    2560    2558    2557                
CQUAD4        91       1    2560    2561    2559    2558                
CQUAD4        92       1    2549    2548    2559    2561                
CTRIA3        93       1    2563    2554    2562                        
CQUAD4        94       2    2555    2567    2570    2554                
CQUAD4        95       2    2566    2611    2570    2567                
CQUAD4        96       2    2611    2599    2554    2570                
CQUAD4        97       1    2584    2583    2586    2585                
CQUAD4        98       1    2579    2601    2586    2583                
CTRIA3        99       1    2601    2577    2586                        
CQUAD4       100       1    2530    2575    2585    2577                
CQUAD4       101       1    2574    2573    2585    2575                
CQUAD4       102       1    2573    2572    2584    2585                
CQUAD4       103       1    2579    2583    2581    2603                
CQUAD4       104       1    2583    2584    2582    2581                
CQUAD4       105       1    2572    2571    2582    2584                
CTRIA3       106       1    2586    2577    2585                        
CQUAD4       107       2    2601    2613    2593    2577                
CQUAD4       108       2    2566    2588    2593    2613                
CQUAD4       109       2    2588    2530    2577    2593                
CQUAD4       110       1    2606    2607    2608    2609                
CQUAD4       111       1    2601    2579    2606    2609                
CTRIA3       112       1    2615    2601    2609                        
CQUAD4       113       1    2598    2599    2615    2608                
CQUAD4       114       1    2596    2551    2598    2608                
CQUAD4       115       1    2595    2596    2608    2607                
CQUAD4       116       1    2606    2579    2603    2604                
CQUAD4       117       1    2607    2606    2604    2605                
CQUAD4       118       1    2594    2595    2607    2605                
CTRIA3       119       1    2615    2609    2608                        
CQUAD4       120       2    2613    2601    2615    2616                
CQUAD4       121       2    2611    2566    2613    2616                
CQUAD4       122       2    2599    2611    2616    2615                
ENDDATA
