ID C:\Users\Dima\Lame3d2\Mpl,FEMAP
SOL SESTATICS
TIME 10000
CEND
  ECHO = NONE
  DISPLACEMENT(PLOT) = ALL
  SPCFORCE(PLOT) = ALL
  OLOAD(PLOT) = ALL
  FORCE(PLOT,CORNER) = ALL
  STRESS(PLOT,CORNER) = ALL
BEGIN BULK
$ ***************************************************************************
$   Written by : FEMAP
$   Version    : 7.00
$   Translator : MSC/NASTRAN
$   From Model : C:\Users\Dima\Lame3d2\Mpls_all\Exe\Box2d_homog\Solid\model5.MOD
$   Date       : Wed Feb 08 10:31:53 2006
$ ***************************************************************************
$
PARAM,POST,-1
PARAM,OGEOM,NO
PARAM,AUTOSPC,YES
PARAM,GRDPNT,0
CORD2C         1       0      0.      0.      0.      0.      0.      1.+FEMAPC1
+FEMAPC1      1.      0.      1.
CORD2S         2       0      0.      0.      0.      0.      0.      1.+FEMAPC2
+FEMAPC2      1.      0.      1.
$ FEMAP Load Set 111 : Inclusion BSOURCE 1. 0.5 0.71364 0.35682 0.
$ FEMAP Property 1 : Matrix
PSHELL         1       1      0.       1               1              0.
$ FEMAP Property 2 : Fulleren
PSHELL         2       1      0.       1               1              0.
$ FEMAP Material 1 : Untitled
MAT1           1     7.8     2.3     0.3      0.      0.      0.        
GRID         165       0      0.      0.      0.       0        
GRID         166       0 0.14286      0.      0.       0        
GRID         167       0 0.28571      0.      0.       0        
GRID         168       0 0.42857      0.      0.       0        
GRID         169       0 0.57143      0.      0.       0        
GRID         170       0 0.71429      0.      0.       0        
GRID         171       0 0.85714      0.      0.       0        
GRID         172       0      1.      0.      0.       0        
GRID         174       0  0.8153 0.15534      0.       0        
GRID         177       0 0.38197 0.32159      0.       0        
GRID         178       0 0.31068 0.40765      0.       0        
GRID         182       0      0. 0.33333      0.       0        
GRID         183       0      0. 0.16667      0.       0        
GRID         184       0 0.18895 0.37971      0.       0        
GRID         185       0  0.2626 0.27825      0.       0        
GRID         186       0 0.36487 0.15848      0.       0        
GRID         187       0  0.5007 0.11937      0.       0        
GRID         188       0 0.19783 0.14368      0.       0        
GRID         189       0 0.13017 0.26004      0.       0        
GRID         191       0      1. 0.32159      0.       0        
$ ... 93 like lines cut
CTRIA3       157       1     197     262     184                        
CTRIA3       158       1     178     197     184                        
CTRIA3       159       1     178     184     185                        
CTRIA3       160       1     177     178     185                        
CTRIA3       161       1     177     185     186                        
CTRIA3       162       1     200     177     186                        
CTRIA3       163       1     171     172     231                        
CTRIA3       164       1     171     231     174                        
CTRIA3       165       1     170     171     174                        
CTRIA3       166       1     170     174     201                        
CTRIA3       167       1     201     200     187                        
CTRIA3       168       1     169     170     201                        
CTRIA3       169       1     169     201     187                        
CTRIA3       170       1     168     169     187                        
CTRIA3       171       1     187     200     186                        
CTRIA3       172       1     168     187     186                        
CTRIA3       173       1     186     185     188                        
CTRIA3       174       1     167     168     186                        
CTRIA3       175       1     167     186     188                        
CTRIA3       176       1     166     167     188                        
$ ... 164 like lines cut
ENDDATA
