ID C:\Users\Dima\Lame3d2\Mpl,FEMAP
SOL SESTATICS
TIME 10000
CEND
  ECHO = NONE
  DISPLACEMENT(PLOT) = ALL
  SPCFORCE(PLOT) = ALL
  OLOAD(PLOT) = ALL
  FORCE(PLOT,CORNER) = ALL
  STRESS(PLOT,CORNER) = ALL
BEGIN BULK
$ ***************************************************************************
$   Written by : FEMAP
$   Version    : 7.00
$   Translator : MSC/NASTRAN
$   From Model : C:\Users\Dima\Lame3d2\Mpls_all\Exe\Box2d_homog\Solid\model.mod
$   Date       : Sat Nov 05 13:11:26 2005
$ ***************************************************************************
$
PARAM,POST,-1
PARAM,OGEOM,NO
PARAM,AUTOSPC,YES
PARAM,GRDPNT,0
CORD2C         1       0      0.      0.      0.      0.      0.      1.+FEMAPC1
+FEMAPC1      1.      0.      1.
CORD2S         2       0      0.      0.      0.      0.      0.      1.+FEMAPC2
+FEMAPC2      1.      0.      1.
$ FEMAP Load Set 111 : Inclusion BSOURCE 0.5 0.5 0.15 0.15 0.
$ FEMAP Property 1 : Matrix
PSHELL         1       1      0.       1               1              0.
$ FEMAP Property 2 : Fulleren
PSHELL         2       1      0.       1               1              0.
$ FEMAP Material 1 : Untitled
MAT1           1     7.8     2.3     0.3      0.      0.      0.        
GRID        2403       0     0.5    0.65      0.       0        
GRID        2405       0      0.      1.      0.       0        
GRID        2406       0      0. 0.83333      0.       0        
GRID        2407       0      0. 0.66667      0.       0        
GRID        2408       0      0.     0.5      0.       0        
GRID        2411       0 0.39393 0.60607      0.       0        
GRID        2413       0     0.5   0.825      0.       0        
GRID        2415       0 0.33333      1.      0.       0        
GRID        2416       0 0.16667      1.      0.       0        
GRID        2417       0 0.26553  0.8377      0.       0        
GRID        2418       0 0.24146 0.65752      0.       0        
GRID        2419       0 0.38035 0.71521      0.       0        
GRID        2420       0 0.12391 0.77686      0.       0        
GRID        2421       0 0.11145  0.8896      0.       0        
GRID        2422       0    0.65     0.5      0.       0        
GRID        2423       0     0.5     0.5      0.       0        
GRID        2426       0      1.      1.      0.       0        
GRID        2427       0      1. 0.83333      0.       0        
GRID        2428       0      1. 0.66667      0.       0        
GRID        2429       0      1.     0.5      0.       0        
$ ... 37 like lines cut
CTRIA3      3439       2    2423    2403    2411                        
CTRIA3      3440       2    2443    2423    2411                        
CTRIA3      3441       1    2413    2435    2415                        
CTRIA3      3442       1    2413    2415    2417                        
CTRIA3      3443       1    2413    2417    2419                        
CTRIA3      3444       1    2403    2413    2419                        
CTRIA3      3445       1    2411    2403    2419                        
CTRIA3      3446       1    2419    2417    2418                        
CTRIA3      3447       1    2411    2419    2418                        
CTRIA3      3448       1    2443    2411    2418                        
CTRIA3      3449       1    2451    2443    2418                        
CTRIA3      3450       1    2407    2408    2451                        
CTRIA3      3451       1    2407    2451    2418                        
CTRIA3      3452       1    2407    2418    2420                        
CTRIA3      3453       1    2406    2407    2420                        
CTRIA3      3454       1    2417    2415    2416                        
CTRIA3      3455       1    2417    2416    2421                        
CTRIA3      3456       1    2420    2418    2417                        
CTRIA3      3457       1    2420    2417    2421                        
CTRIA3      3458       1    2406    2420    2421                        
$ ... 68 like lines cut
ENDDATA
