ID C:\Users\Dima\Lame3d2\Mpl,FEMAP
SOL SESTATICS
TIME 10000
CEND
  ECHO = NONE
  DISPLACEMENT(PLOT) = ALL
  SPCFORCE(PLOT) = ALL
  OLOAD(PLOT) = ALL
  FORCE(PLOT,CORNER) = ALL
  STRESS(PLOT,CORNER) = ALL
BEGIN BULK
$ ***************************************************************************
$   Written by : FEMAP
$   Version    : 7.00
$   Translator : MSC/NASTRAN
$   From Model : C:\Users\Dima\Lame3d2\Mpls_all\Exe\Box2d_homog\Solid\model.mod
$   Date       : Sat Nov 05 09:55:01 2005
$ ***************************************************************************
$
PARAM,POST,-1
PARAM,OGEOM,NO
PARAM,AUTOSPC,YES
PARAM,GRDPNT,0
CORD2C         1       0      0.      0.      0.      0.      0.      1.+FEMAPC1
+FEMAPC1      1.      0.      1.
CORD2S         2       0      0.      0.      0.      0.      0.      1.+FEMAPC2
+FEMAPC2      1.      0.      1.
$ FEMAP Load Set 111 : Inclusion BSOURCE 0.5 0.5 0.2 0.2 0.
$ FEMAP Property 1 : Matrix
PSHELL         1       1      0.       1               1              0.
$ FEMAP Property 2 : Fulleren
PSHELL         2       1      0.       1               1              0.
$ FEMAP Material 1 : Untitled
MAT1           1     7.8     2.3     0.3      0.      0.      0.        
GRID        2402       0     0.5     0.5      0.       0        
GRID        2405       0      0.      1.      0.       0        
GRID        2406       0      0. 0.83333      0.       0        
GRID        2407       0      0. 0.66667      0.       0        
GRID        2409       0    0.15     0.5      0.       0        
GRID        2411       0 0.35858 0.64142      0.       0        
GRID        2414       0     0.5      1.      0.       0        
GRID        2415       0 0.33333      1.      0.       0        
GRID        2416       0 0.16667      1.      0.       0        
GRID        2417       0 0.34021 0.83073      0.       0        
GRID        2418       0 0.16918 0.83105      0.       0        
GRID        2419       0 0.16937 0.65989      0.       0        
GRID        2420       0     0.3     0.5      0.       0        
GRID        2423       0 0.35858 0.35858      0.       0        
GRID        2424       0      0.      0.      0.       0        
GRID        2425       0      0. 0.16667      0.       0        
GRID        2426       0      0. 0.33333      0.       0        
GRID        2427       0      0.     0.5      0.       0        
GRID        2431       0     0.5     0.3      0.       0        
GRID        2432       0     0.5    0.15      0.       0        
$ ... 29 like lines cut
CTRIA3      3439       2    2402    2441    2411                        
CTRIA3      3440       2    2420    2402    2411                        
CQUAD4      3441       1    2411    2441    2451    2417                
CQUAD4      3442       1    2411    2417    2418    2419                
CQUAD4      3443       1    2409    2420    2411    2419                
CQUAD4      3444       1    2407    2427    2409    2419                
CQUAD4      3445       1    2406    2407    2419    2418                
CQUAD4      3446       1    2417    2451    2414    2415                
CQUAD4      3447       1    2418    2417    2415    2416                
CQUAD4      3448       1    2405    2406    2418    2416                
CTRIA3      3449       2    2431    2402    2423                        
CTRIA3      3450       2    2402    2420    2423                        
CQUAD4      3451       1    2431    2423    2436    2432                
CQUAD4      3452       1    2436    2423    2438    2437                
CQUAD4      3453       1    2420    2409    2438    2423                
CQUAD4      3454       1    2427    2426    2438    2409                
CQUAD4      3455       1    2426    2425    2437    2438                
CQUAD4      3456       1    2432    2436    2434    2471                
CQUAD4      3457       1    2436    2437    2435    2434                
CQUAD4      3458       1    2425    2424    2435    2437                
CTRIA3      3459       2    2441    2402    2442                        
CTRIA3      3460       2    2402    2439    2442                        
CQUAD4      3461       1    2441    2442    2455    2451                
CQUAD4      3462       1    2455    2442    2457    2456                
CQUAD4      3463       1    2439    2447    2457    2442                
CQUAD4      3464       1    2446    2445    2457    2447                
CQUAD4      3465       1    2445    2444    2456    2457                
CQUAD4      3466       1    2451    2455    2453    2414                
CQUAD4      3467       1    2455    2456    2454    2453                
CQUAD4      3468       1    2444    2443    2454    2456                
CTRIA3      3469       2    2402    2431    2461                        
CTRIA3      3470       2    2439    2402    2461                        
CQUAD4      3471       1    2461    2431    2432    2474                
CQUAD4      3472       1    2461    2474    2475    2476                
CQUAD4      3473       1    2447    2439    2461    2476                
CQUAD4      3474       1    2464    2446    2447    2476                
CQUAD4      3475       1    2463    2464    2476    2475                
CQUAD4      3476       1    2474    2432    2471    2472                
CQUAD4      3477       1    2475    2474    2472    2473                
CQUAD4      3478       1    2462    2463    2475    2473                
ENDDATA
