ID C:\Users\Dima\Lame3d2\Mpl,FEMAP
SOL SESTATICS
TIME 10000
CEND
  ECHO = NONE
  DISPLACEMENT(PLOT) = ALL
  SPCFORCE(PLOT) = ALL
  OLOAD(PLOT) = ALL
  FORCE(PLOT,CORNER) = ALL
  STRESS(PLOT,CORNER) = ALL
BEGIN BULK
$ ***************************************************************************
$   Written by : FEMAP
$   Version    : 7.00
$   Translator : MSC/NASTRAN
$   From Model : C:\Users\Dima\Lame3d2\Mpls_all\Exe\Box2d_homog\Solid\model2.MOD
$   Date       : Sat Dec 24 22:35:30 2005
$ ***************************************************************************
$
PARAM,POST,-1
PARAM,OGEOM,NO
PARAM,AUTOSPC,YES
PARAM,GRDPNT,0
CORD2C         1       0      0.      0.      0.      0.      0.      1.+FEMAPC1
+FEMAPC1      1.      0.      1.
CORD2S         2       0      0.      0.      0.      0.      0.      1.+FEMAPC2
+FEMAPC2      1.      0.      1.
$ FEMAP Load Set 111 : Inclusion BSOURCE 0.5 0.5 0.25 0.25 0.
$ FEMAP Property 1 : Matrix
PSHELL         1       1      0.       1               1              0.
$ FEMAP Property 2 : Fulleren
PSHELL         2       1      0.       1               1              0.
$ FEMAP Material 1 : Untitled
MAT1           1     7.8     2.3     0.3      0.      0.      0.        
GRID        2520       0      0.      1.      0.       0        
GRID        2521       0      0. 0.85714      0.       0        
GRID        2522       0      0. 0.71429      0.       0        
GRID        2523       0      0. 0.57143      0.       0        
GRID        2524       0      0. 0.42857      0.       0        
GRID        2525       0      0. 0.28571      0.       0        
GRID        2526       0      0. 0.14286      0.       0        
GRID        2527       0      0.      0.      0.       0        
GRID        2528       0 0.14286      0.      0.       0        
GRID        2529       0 0.28571      0.      0.       0        
GRID        2530       0 0.42857      0.      0.       0        
GRID        2531       0 0.57143      0.      0.       0        
GRID        2532       0 0.71429      0.      0.       0        
GRID        2533       0 0.85714      0.      0.       0        
GRID        2534       0      1.      0.      0.       0        
GRID        2535       0      1. 0.14286      0.       0        
GRID        2536       0      1. 0.28571      0.       0        
GRID        2537       0      1. 0.42857      0.       0        
GRID        2538       0      1. 0.57143      0.       0        
GRID        2539       0      1. 0.71429      0.       0        
$ ... 62 like lines cut
CTRIA3      3525       1    2560    2563    2567                        
CTRIA3      3526       1    2537    2560    2567                        
CTRIA3      3527       1    2536    2537    2567                        
CTRIA3      3528       1    2564    2566    2568                        
CTRIA3      3529       1    2563    2564    2568                        
CTRIA3      3530       1    2567    2563    2568                        
CTRIA3      3531       1    2536    2567    2568                        
CTRIA3      3532       1    2535    2536    2568                        
CTRIA3      3533       1    2535    2568    2566                        
CTRIA3      3534       1    2533    2534    2535                        
CTRIA3      3535       1    2533    2535    2566                        
CTRIA3      3536       1    2532    2533    2566                        
CTRIA3      3537       1    2566    2564    2565                        
CTRIA3      3538       1    2532    2566    2565                        
CTRIA3      3539       1    2531    2532    2565                        
CTRIA3      3540       1    2563    2560    2587                        
CTRIA3      3541       1    2563    2587    2558                        
CTRIA3      3542       1    2564    2563    2558                        
CTRIA3      3543       1    2564    2558    2559                        
CTRIA3      3544       1    2559    2548    2562                        
$ ... 74 like lines cut
CQUAD4      3619       2    2599    2600    2602    2604                
CQUAD4      3620       2    2552    2551    2599    2604                
CQUAD4      3621       2    2591    2552    2604    2605                
CQUAD4      3622       2    2605    2604    2602    2603                
CQUAD4      3623       2    2554    2591    2605    2603                
CQUAD4      3624       2    2603    2602    2606    2607                
CQUAD4      3625       2    2589    2554    2603    2607                
CQUAD4      3626       2    2588    2589    2607    2606                
CQUAD4      3627       2    2606    2602    2600    2601                
CQUAD4      3628       2    2587    2588    2606    2601                
CQUAD4      3629       2    2608    2609    2610    2611                
CQUAD4      3630       2    2549    2548    2608    2611                
CQUAD4      3631       2    2594    2549    2611    2610                
CQUAD4      3632       2    2599    2551    2594    2610                
CQUAD4      3633       2    2600    2599    2610    2609                
CQUAD4      3634       2    2559    2558    2612    2613                
CQUAD4      3635       2    2608    2548    2559    2613                
CQUAD4      3636       2    2609    2608    2613    2612                
CQUAD4      3637       2    2601    2600    2609    2612                
CQUAD4      3638       2    2587    2601    2612    2558                
ENDDATA
