ID C:\Users\Dima\Lame3d2\Mpl,FEMAP
SOL SESTATICS
TIME 10000
CEND
  ECHO = NONE
  DISPLACEMENT(PLOT) = ALL
  SPCFORCE(PLOT) = ALL
  OLOAD(PLOT) = ALL
  FORCE(PLOT,CORNER) = ALL
  STRESS(PLOT,CORNER) = ALL
BEGIN BULK
$ ***************************************************************************
$   Written by : FEMAP
$   Version    : 7.00
$   Translator : MSC/NASTRAN
$   From Model : C:\Users\Dima\Lame3d2\Mpls_all\Exe\Box2d_homog\Solid\model.mod
$   Date       : Sat Nov 05 10:31:41 2005
$ ***************************************************************************
$
PARAM,POST,-1
PARAM,OGEOM,NO
PARAM,AUTOSPC,YES
PARAM,GRDPNT,0
CORD2C         1       0      0.      0.      0.      0.      0.      1.+FEMAPC1
+FEMAPC1      1.      0.      1.
CORD2S         2       0      0.      0.      0.      0.      0.      1.+FEMAPC2
+FEMAPC2      1.      0.      1.
$ FEMAP Load Set 111 : Inclusion BSOURCE 0.5 0.5 0.4 0.4 0.
$ FEMAP Property 1 : Matrix
PSHELL         1       1      0.       1               1              0.
$ FEMAP Property 2 : Fulleren
PSHELL         2       1      0.       1               1              0.
$ FEMAP Material 1 : Untitled
MAT1           1     7.8     2.3     0.3      0.      0.      0.        
GRID        2569       0      0.      1.      0.       0        
GRID        2570       0      0. 0.91667      0.       0        
GRID        2571       0      0. 0.83333      0.       0        
GRID        2572       0      0.    0.75      0.       0        
GRID        2573       0      0. 0.66667      0.       0        
GRID        2574       0      0. 0.58333      0.       0        
GRID        2575       0      0.     0.5      0.       0        
GRID        2578       0 0.13961 0.67355      0.       0        
GRID        2580       0  0.2506 0.81273      0.       0        
GRID        2582       0 0.41099 0.88997      0.       0        
GRID        2583       0     0.5     0.9      0.       0        
GRID        2585       0 0.41667      1.      0.       0        
GRID        2586       0 0.33333      1.      0.       0        
GRID        2587       0    0.25      1.      0.       0        
GRID        2588       0 0.16667      1.      0.       0        
GRID        2589       00.083333      1.      0.       0        
GRID        2590       0 0.13812 0.93091      0.       0        
GRID        2591       0 0.15706 0.84919      0.       0        
GRID        2592       0 0.20807 0.91882      0.       0        
GRID        2593       0  0.3549 0.93425      0.       0        
$ ... 141 like lines cut
CTRIA3      3660       1    2585    2586    2593                        
CTRIA3      3661       1    2583    2692    2585                        
CTRIA3      3662       1    2582    2583    2585                        
CTRIA3      3663       1    2582    2585    2593                        
CTRIA3      3664       1    2587    2588    2592                        
CTRIA3      3665       1    2587    2592    2594                        
CTRIA3      3666       1    2586    2587    2594                        
CTRIA3      3667       1    2593    2586    2594                        
CTRIA3      3668       1    2609    2582    2593                        
CTRIA3      3669       1    2609    2593    2594                        
CTRIA3      3670       1    2580    2609    2594                        
CTRIA3      3671       1    2580    2594    2592                        
CTRIA3      3672       1    2588    2589    2590                        
CTRIA3      3673       1    2592    2588    2590                        
CTRIA3      3674       1    2592    2590    2591                        
CTRIA3      3675       1    2580    2592    2591                        
CTRIA3      3676       1    2611    2580    2591                        
CTRIA3      3677       1    2574    2575    2599                        
CTRIA3      3678       1    2574    2599    2613                        
CTRIA3      3679       1    2574    2613    2596                        
$ ... 252 like lines cut
ENDDATA
