ID C:\Users\Dima\Lame3d2\Mpl,FEMAP
SOL SESTATICS
TIME 10000
CEND
  ECHO = NONE
  DISPLACEMENT(PLOT) = ALL
  SPCFORCE(PLOT) = ALL
  OLOAD(PLOT) = ALL
  FORCE(PLOT,CORNER) = ALL
  STRESS(PLOT,CORNER) = ALL
BEGIN BULK
$ ***************************************************************************
$   Written by : FEMAP
$   Version    : 7.00
$   Translator : MSC/NASTRAN
$   From Model : C:\Users\Dima\Lame3d2\Mpls_all\Exe\Box2d_homog\Solid\model.mod
$   Date       : Sat Nov 05 11:47:40 2005
$ ***************************************************************************
$
PARAM,POST,-1
PARAM,OGEOM,NO
PARAM,AUTOSPC,YES
PARAM,GRDPNT,0
CORD2C         1       0      0.      0.      0.      0.      0.      1.+FEMAPC1
+FEMAPC1      1.      0.      1.
CORD2S         2       0      0.      0.      0.      0.      0.      1.+FEMAPC2
+FEMAPC2      1.      0.      1.
$ FEMAP Load Set 111 : Inclusion BSOURCE 0.5 0.5 0.35 0.35 0.
$ FEMAP Property 1 : Matrix
PSHELL         1       1      0.       1               1              0.
$ FEMAP Property 2 : Fulleren
PSHELL         2       1      0.       1               1              0.
$ FEMAP Material 1 : Untitled
MAT1           1     7.8     2.3     0.3      0.      0.      0.        
GRID        2507       0      0.      1.      0.       0        
GRID        2508       0      0.     0.9      0.       0        
GRID        2509       0      0.     0.8      0.       0        
GRID        2510       0      0.     0.7      0.       0        
GRID        2511       0      0.     0.6      0.       0        
GRID        2516       0 0.29428 0.78316      0.       0        
GRID        2519       0     0.5      1.      0.       0        
GRID        2520       0     0.4      1.      0.       0        
GRID        2521       0     0.3      1.      0.       0        
GRID        2522       0     0.2      1.      0.       0        
GRID        2523       0     0.1      1.      0.       0        
GRID        2524       0 0.13338 0.90826      0.       0        
GRID        2525       0 0.17722 0.81387      0.       0        
GRID        2526       0 0.24307 0.90015      0.       0        
GRID        2527       0 0.35483  0.8944      0.       0        
GRID        2528       00.096532 0.74983      0.       0        
GRID        2529       0 0.10498 0.64403      0.       0        
GRID        2530       00.081066  0.8347      0.       0        
GRID        2536       0     0.5 0.73333      0.       0        
GRID        2538       0 0.39184 0.83287      0.       0        
$ ... 97 like lines cut
CTRIA3      3545       1    2522    2523    2524                        
CTRIA3      3546       1    2524    2525    2526                        
CTRIA3      3547       1    2522    2524    2526                        
CTRIA3      3548       1    2521    2522    2526                        
CTRIA3      3549       1    2520    2521    2527                        
CTRIA3      3550       1    2598    2519    2520                        
CTRIA3      3551       1    2598    2520    2527                        
CTRIA3      3552       1    2538    2598    2527                        
CTRIA3      3553       1    2527    2521    2526                        
CTRIA3      3554       1    2516    2538    2527                        
CTRIA3      3555       1    2516    2527    2526                        
CTRIA3      3556       1    2516    2526    2525                        
CTRIA3      3557       1    2540    2516    2525                        
CTRIA3      3558       1    2511    2552    2553                        
CTRIA3      3559       1    2553    2541    2529                        
CTRIA3      3560       1    2511    2553    2529                        
CTRIA3      3561       1    2510    2511    2529                        
CTRIA3      3562       1    2540    2525    2528                        
CTRIA3      3563       1    2529    2541    2540                        
CTRIA3      3564       1    2529    2540    2528                        
$ ... 172 like lines cut
ENDDATA
