ID C:\Users\Dima\Lame3d2\Mpl,FEMAP
SOL SESTATICS
TIME 10000
CEND
  ECHO = NONE
  DISPLACEMENT(PLOT) = ALL
  SPCFORCE(PLOT) = ALL
  OLOAD(PLOT) = ALL
  FORCE(PLOT,CORNER) = ALL
  STRESS(PLOT,CORNER) = ALL
BEGIN BULK
$ ***************************************************************************
$   Written by : FEMAP
$   Version    : 7.00
$   Translator : MSC/NASTRAN
$   From Model : C:\Users\Dima\Lame3d2\Mpls_all\Exe\Box2d_homog\Solid\model2.MOD
$   Date       : Sat Dec 24 22:07:47 2005
$ ***************************************************************************
$
PARAM,POST,-1
PARAM,OGEOM,NO
PARAM,AUTOSPC,YES
PARAM,GRDPNT,0
CORD2C         1       0      0.      0.      0.      0.      0.      1.+FEMAPC1
+FEMAPC1      1.      0.      1.
CORD2S         2       0      0.      0.      0.      0.      0.      1.+FEMAPC2
+FEMAPC2      1.      0.      1.
$ FEMAP Load Set 111 : Inclusion BSOURCE 0.5 0.5 0.25 0.25 0.
$ FEMAP Property 1 : Matrix
PSHELL         1       1      0.       1               1              0.
$ FEMAP Property 2 : Fulleren
PSHELL         2       1      0.       1               1              0.
$ FEMAP Material 1 : Untitled
MAT1           1     7.8     2.3     0.3      0.      0.      0.        
GRID        2413       0      0.      1.      0.       0        
GRID        2414       0      0. 0.85714      0.       0        
GRID        2415       0      0. 0.71429      0.       0        
GRID        2416       0      0. 0.57143      0.       0        
GRID        2417       0      0. 0.42857      0.       0        
GRID        2418       0      0. 0.28571      0.       0        
GRID        2419       0      0. 0.14286      0.       0        
GRID        2420       0      0.      0.      0.       0        
GRID        2421       0 0.14286      0.      0.       0        
GRID        2422       0 0.28571      0.      0.       0        
GRID        2423       0 0.42857      0.      0.       0        
GRID        2424       0 0.57143      0.      0.       0        
GRID        2425       0 0.71429      0.      0.       0        
GRID        2426       0 0.85714      0.      0.       0        
GRID        2427       0      1.      0.      0.       0        
GRID        2428       0      1. 0.14286      0.       0        
GRID        2429       0      1. 0.28571      0.       0        
GRID        2430       0      1. 0.42857      0.       0        
GRID        2431       0      1. 0.57143      0.       0        
GRID        2432       0      1. 0.71429      0.       0        
$ ... 75 like lines cut
CQUAD4      3445       1    2456    2457    2461    2462                
CQUAD4      3446       1    2502    2455    2456    2462                
CQUAD4      3447       1    2503    2502    2462    2461                
CQUAD4      3448       1    2461    2457    2459    2463                
CQUAD4      3449       1    2504    2503    2461    2463                
CQUAD4      3450       1    2504    2463    2459    2460                
CQUAD4      3451       1    2453    2450    2504    2460                
CQUAD4      3452       1    2429    2430    2453    2460                
CQUAD4      3453       1    2459    2457    2458    2464                
CQUAD4      3454       1    2429    2460    2459    2464                
CQUAD4      3455       1    2428    2429    2464    2458                
CQUAD4      3456       1    2426    2427    2428    2458                
CQUAD4      3457       1    2425    2426    2458    2457                
CQUAD4      3458       1    2424    2425    2457    2456                
CQUAD4      3459       1    2423    2424    2456    2455                
CQUAD4      3460       1    2465    2466    2470    2471                
CQUAD4      3461       1    2499    2454    2465    2471                
CQUAD4      3462       1    2500    2499    2471    2470                
CQUAD4      3463       1    2470    2466    2468    2472                
CQUAD4      3464       1    2442    2500    2470    2472                
$ ... 60 like lines cut
ENDDATA
