ID C:\Users\Dima\Lame3d2\Mpl,FEMAP
SOL SESTATICS
TIME 10000
CEND
  ECHO = NONE
  DISPLACEMENT(PLOT) = ALL
  SPCFORCE(PLOT) = ALL
  OLOAD(PLOT) = ALL
  FORCE(PLOT,CORNER) = ALL
  STRESS(PLOT,CORNER) = ALL
BEGIN BULK
$ ***************************************************************************
$   Written by : FEMAP
$   Version    : 7.00
$   Translator : MSC/NASTRAN
$   From Model : C:\Users\Dima\Lame3d2\Mpls_all\Exe\Box2d_homog\Solid\model.mod
$   Date       : Tue Feb 07 18:16:26 2006
$ ***************************************************************************
$
PARAM,POST,-1
PARAM,OGEOM,NO
PARAM,AUTOSPC,YES
PARAM,GRDPNT,0
CORD2C         1       0      0.      0.      0.      0.      0.      1.+FEMAPC1
+FEMAPC1      1.      0.      1.
CORD2S         2       0      0.      0.      0.      0.      0.      1.+FEMAPC2
+FEMAPC2      1.      0.      1.
$ FEMAP Load Set 111 : Inclusion BSOURCE 0.5 0.5 0.35682 0.35682 0.
$ FEMAP Property 1 : Matrix
PSHELL         1       1      0.       1               1              0.
$ FEMAP Property 2 : Fulleren
PSHELL         2       1      0.       1               1              0.
$ FEMAP Material 1 : Untitled
MAT1           1     7.8     2.3     0.3      0.      0.      0.        
GRID        2447       0      0.      0.      0.       0        
GRID        2448       0 0.16667      0.      0.       0        
GRID        2449       0 0.33333      0.      0.       0        
GRID        2450       0     0.5      0.      0.       0        
GRID        2452       0 0.36345 0.17034      0.       0        
GRID        2456       0      0.     0.5      0.       0        
GRID        2457       0      0. 0.33333      0.       0        
GRID        2458       0      0. 0.16667      0.       0        
GRID        2459       0 0.12482 0.25001      0.       0        
GRID        2460       0   0.206 0.13912      0.       0        
GRID        2464       0 0.32159     0.5      0.       0        
GRID        2466       0 0.17034 0.36345      0.       0        
GRID        2467       0 0.24769 0.24769      0.       0        
GRID        2469       0 0.33885 0.33885      0.       0        
GRID        2470       0      0.      1.      0.       0        
GRID        2471       0 0.16667      1.      0.       0        
GRID        2472       0 0.33333      1.      0.       0        
GRID        2475       0 0.36345 0.82966      0.       0        
GRID        2476       0 0.24769 0.75231      0.       0        
GRID        2477       0 0.17034 0.63655      0.       0        
$ ... 37 like lines cut
CTRIA3      3477       1    2488    2456    2457                        
CTRIA3      3478       1    2466    2488    2457                        
CTRIA3      3479       1    2457    2458    2459                        
CTRIA3      3480       1    2466    2457    2459                        
CTRIA3      3481       1    2467    2466    2459                        
CTRIA3      3482       1    2449    2450    2497                        
CTRIA3      3483       1    2449    2497    2452                        
CTRIA3      3484       1    2452    2467    2460                        
CTRIA3      3485       1    2449    2452    2460                        
CTRIA3      3486       1    2448    2449    2460                        
CTRIA3      3487       1    2460    2467    2459                        
CTRIA3      3488       1    2460    2459    2458                        
CTRIA3      3489       1    2448    2460    2458                        
CTRIA3      3490       1    2447    2448    2458                        
CQUAD4      3491       2    2464    2488    2466    2469                
CQUAD4      3492       2    2508    2486    2464    2469                
CTRIA3      3493       2    2469    2466    2467                        
CQUAD4      3494       2    2497    2508    2469    2452                
CTRIA3      3495       2    2469    2467    2452                        
CTRIA3      3496       1    2456    2488    2480                        
CTRIA3      3497       1    2488    2477    2480                        
CTRIA3      3498       1    2481    2480    2482                        
CTRIA3      3499       1    2480    2477    2482                        
CTRIA3      3500       1    2477    2476    2482                        
CTRIA3      3501       1    2519    2472    2484                        
CTRIA3      3502       1    2484    2472    2475                        
CTRIA3      3503       1    2476    2475    2483                        
CTRIA3      3504       1    2475    2472    2483                        
CTRIA3      3505       1    2472    2471    2483                        
CTRIA3      3506       1    2476    2483    2482                        
CTRIA3      3507       1    2482    2483    2481                        
CTRIA3      3508       1    2483    2471    2481                        
CTRIA3      3509       1    2471    2470    2481                        
CQUAD4      3510       2    2488    2464    2492    2477                
CQUAD4      3511       2    2486    2531    2492    2464                
CTRIA3      3512       2    2477    2492    2476                        
CQUAD4      3513       2    2531    2484    2475    2492                
CTRIA3      3514       2    2476    2492    2475                        
CTRIA3      3515       1    2502    2524    2503                        
CTRIA3      3516       1    2524    2500    2503                        
CTRIA3      3517       1    2504    2503    2505                        
CTRIA3      3518       1    2503    2500    2505                        
CTRIA3      3519       1    2500    2513    2505                        
CTRIA3      3520       1    2450    2495    2497                        
CTRIA3      3521       1    2497    2495    2514                        
CTRIA3      3522       1    2513    2514    2506                        
CTRIA3      3523       1    2514    2495    2506                        
CTRIA3      3524       1    2495    2494    2506                        
CTRIA3      3525       1    2513    2506    2505                        
CTRIA3      3526       1    2505    2506    2504                        
CTRIA3      3527       1    2506    2494    2504                        
CTRIA3      3528       1    2494    2493    2504                        
CQUAD4      3529       2    2524    2510    2515    2500                
CQUAD4      3530       2    2486    2508    2515    2510                
CTRIA3      3531       2    2500    2515    2513                        
CQUAD4      3532       2    2508    2497    2514    2515                
CTRIA3      3533       2    2513    2515    2514                        
CTRIA3      3534       1    2524    2502    2526                        
CTRIA3      3535       1    2535    2524    2526                        
CTRIA3      3536       1    2526    2527    2528                        
CTRIA3      3537       1    2535    2526    2528                        
CTRIA3      3538       1    2522    2535    2528                        
CTRIA3      3539       1    2518    2519    2484                        
CTRIA3      3540       1    2518    2484    2537                        
CTRIA3      3541       1    2537    2522    2529                        
CTRIA3      3542       1    2518    2537    2529                        
CTRIA3      3543       1    2517    2518    2529                        
CTRIA3      3544       1    2529    2522    2528                        
CTRIA3      3545       1    2529    2528    2527                        
CTRIA3      3546       1    2517    2529    2527                        
CTRIA3      3547       1    2516    2517    2527                        
CQUAD4      3548       2    2510    2524    2535    2538                
CQUAD4      3549       2    2531    2486    2510    2538                
CTRIA3      3550       2    2538    2535    2522                        
CQUAD4      3551       2    2484    2531    2538    2537                
CTRIA3      3552       2    2538    2522    2537                        
ENDDATA
