ID C:\Users\Dima\Lame3d2\Mpl,FEMAP
SOL SESTATICS
TIME 10000
CEND
  ECHO = NONE
  DISPLACEMENT(PLOT) = ALL
  SPCFORCE(PLOT) = ALL
  OLOAD(PLOT) = ALL
  FORCE(PLOT,CORNER) = ALL
  STRESS(PLOT,CORNER) = ALL
BEGIN BULK
$ ***************************************************************************
$   Written by : FEMAP
$   Version    : 7.00
$   Translator : MSC/NASTRAN
$   From Model : C:\Users\Dima\Lame3d2\Mpls_all\Exe\Box2d_homog\Solid\model2.MOD
$   Date       : Thu Dec 22 20:21:44 2005
$ ***************************************************************************
$
PARAM,POST,-1
PARAM,OGEOM,NO
PARAM,AUTOSPC,YES
PARAM,GRDPNT,0
CORD2C         1       0      0.      0.      0.      0.      0.      1.+FEMAPC1
+FEMAPC1      1.      0.      1.
CORD2S         2       0      0.      0.      0.      0.      0.      1.+FEMAPC2
+FEMAPC2      1.      0.      1.
$ FEMAP Load Set 111 : Inclusion BSOURCE 0.5 0.5 0.25 0.25 0.
$ FEMAP Property 1 : Matrix
PSHELL         1       1      0.       1               1              0.
$ FEMAP Property 2 : Fulleren
PSHELL         2       1      0.       1               1              0.
$ FEMAP Material 1 : Untitled
MAT1           1     7.8     2.3     0.3      0.      0.      0.        
GRID        3101       0      0.      1.      0.       0        
GRID        3102       0      0.   0.875      0.       0        
GRID        3103       0      0.    0.75      0.       0        
GRID        3104       0      0.   0.625      0.       0        
GRID        3105       0      0.     0.5      0.       0        
GRID        3111       0     0.5   0.875      0.       0        
GRID        3113       0   0.375      1.      0.       0        
GRID        3114       0    0.25      1.      0.       0        
GRID        3115       0   0.125      1.      0.       0        
GRID        3116       0 0.39015 0.79305      0.       0        
GRID        3117       0 0.25651 0.74495      0.       0        
GRID        3118       0 0.11404 0.72021      0.       0        
GRID        3119       0 0.17156 0.61911      0.       0        
GRID        3120       0 0.14145 0.86288      0.       0        
GRID        3121       00.066681 0.93438      0.       0        
GRID        3122       0 0.31896 0.87916      0.       0        
GRID        3126       0     0.5   0.625      0.       0        
GRID        3128       0   0.375 0.71651      0.       0        
GRID        3129       0 0.28349   0.625      0.       0        
GRID        3130       0 0.42225 0.61942      0.       0        
$ ... 65 like lines cut
CTRIA3       649       1    3140    3111    3116                        
CTRIA3       650       1    3128    3140    3116                        
CTRIA3       651       1    3128    3116    3117                        
CTRIA3       652       1    3129    3128    3117                        
CTRIA3       653       1    3117    3118    3119                        
CTRIA3       654       1    3129    3117    3119                        
CTRIA3       655       1    3183    3129    3119                        
CTRIA3       656       1    3166    3183    3119                        
CTRIA3       657       1    3104    3105    3166                        
CTRIA3       658       1    3104    3166    3119                        
CTRIA3       659       1    3104    3119    3118                        
CTRIA3       660       1    3103    3104    3118                        
CTRIA3       661       1    3118    3117    3120                        
CTRIA3       662       1    3103    3118    3120                        
CTRIA3       663       1    3102    3103    3120                        
CTRIA3       664       1    3102    3120    3121                        
CTRIA3       665       1    3101    3102    3121                        
CTRIA3       666       1    3113    3114    3122                        
CTRIA3       667       1    3111    3142    3113                        
CTRIA3       668       1    3111    3113    3122                        
$ ... 116 like lines cut
ENDDATA
