ID C:\Users\Dima\Lame3d2\Mpl,FEMAP
SOL SESTATICS
TIME 10000
CEND
  ECHO = NONE
  DISPLACEMENT(PLOT) = ALL
  SPCFORCE(PLOT) = ALL
  OLOAD(PLOT) = ALL
  FORCE(PLOT,CORNER) = ALL
  STRESS(PLOT,CORNER) = ALL
BEGIN BULK
$ ***************************************************************************
$   Written by : FEMAP
$   Version    : 7.00
$   Translator : MSC/NASTRAN
$   From Model : C:\Users\Dima\Lame3d2\Mpls_all\Exe\Box2d_homog\Solid\model1.MOD
$   Date       : Wed Dec 21 19:36:02 2005
$ ***************************************************************************
$
PARAM,POST,-1
PARAM,OGEOM,NO
PARAM,AUTOSPC,YES
PARAM,GRDPNT,0
CORD2C         1       0      0.      0.      0.      0.      0.      1.+FEMAPC1
+FEMAPC1      1.      0.      1.
CORD2S         2       0      0.      0.      0.      0.      0.      1.+FEMAPC2
+FEMAPC2      1.      0.      1.
$ FEMAP Load Set 111 : Inclusion BSOURCE 0.5 0.5 0.25 0.25 0.
$ FEMAP Property 1 : Matrix
PSHELL         1       1      0.       1               1              0.
$ FEMAP Property 2 : Fulleren
PSHELL         2       1      0.       1               1              0.
$ FEMAP Material 1 : Untitled
MAT1           1     7.8     2.3     0.3      0.      0.      0.        
GRID        2401       0      0.      1.      0.       0        
GRID        2402       0      0. 0.83333      0.       0        
GRID        2403       0      0. 0.66667      0.       0        
GRID        2408       0   0.375 0.71651      0.       0        
GRID        2410       0     0.5   0.875      0.       0        
GRID        2411       0     0.5      1.      0.       0        
GRID        2412       0 0.33333      1.      0.       0        
GRID        2413       0 0.16667      1.      0.       0        
GRID        2414       0 0.34955 0.84548      0.       0        
GRID        2415       0 0.18989 0.78984      0.       0        
GRID        2416       0 0.14959 0.64552      0.       0        
GRID        2423       0 0.28349   0.625      0.       0        
GRID        2424       0      1.      1.      0.       0        
GRID        2425       0      1. 0.83333      0.       0        
GRID        2426       0      1. 0.66667      0.       0        
GRID        2428       0   0.875     0.5      0.       0        
GRID        2429       0    0.75     0.5      0.       0        
GRID        2431       0   0.625 0.71651      0.       0        
GRID        2432       0     0.5    0.75      0.       0        
GRID        2435       0 0.66667      1.      0.       0        
$ ... 37 like lines cut
CQUAD4      3439       1    2451    2452    2423    2416                
CQUAD4      3440       1    2403    2450    2451    2416                
CQUAD4      3441       1    2408    2432    2410    2414                
CQUAD4      3442       1    2423    2408    2414    2415                
CTRIA3      3443       1    2416    2423    2415                        
CQUAD4      3444       1    2402    2403    2416    2415                
CQUAD4      3445       1    2414    2410    2411    2412                
CQUAD4      3446       1    2415    2414    2412    2413                
CQUAD4      3447       1    2401    2402    2415    2413                
CTRIA3      3448       2    2443    2432    2408                        
CQUAD4      3449       2    2464    2442    2443    2423                
CTRIA3      3450       2    2452    2464    2423                        
CTRIA3      3451       2    2443    2408    2423                        
CQUAD4      3452       1    2429    2428    2439    2446                
CQUAD4      3453       1    2473    2426    2439    2428                
CQUAD4      3454       1    2432    2431    2437    2410                
CQUAD4      3455       1    2431    2446    2438    2437                
CTRIA3      3456       1    2446    2439    2438                        
CQUAD4      3457       1    2426    2425    2438    2439                
CQUAD4      3458       1    2410    2437    2435    2411                
CQUAD4      3459       1    2437    2438    2436    2435                
CQUAD4      3460       1    2425    2424    2436    2438                
CTRIA3      3461       2    2432    2443    2431                        
CQUAD4      3462       2    2442    2487    2446    2443                
CTRIA3      3463       2    2487    2429    2446                        
CTRIA3      3464       2    2431    2443    2446                        
CQUAD4      3465       1    2452    2451    2462    2453                
CQUAD4      3466       1    2450    2449    2462    2451                
CQUAD4      3467       1    2467    2454    2460    2456                
CQUAD4      3468       1    2454    2453    2461    2460                
CTRIA3      3469       1    2453    2462    2461                        
CQUAD4      3470       1    2449    2448    2461    2462                
CQUAD4      3471       1    2456    2460    2458    2457                
CQUAD4      3472       1    2460    2461    2459    2458                
CQUAD4      3473       1    2448    2447    2459    2461                
CTRIA3      3474       2    2467    2489    2454                        
CQUAD4      3475       2    2442    2464    2453    2489                
CTRIA3      3476       2    2464    2452    2453                        
CTRIA3      3477       2    2454    2489    2453                        
CQUAD4      3478       1    2428    2429    2476    2485                
CQUAD4      3479       1    2472    2473    2428    2485                
CQUAD4      3480       1    2491    2467    2456    2483                
CQUAD4      3481       1    2476    2491    2483    2484                
CTRIA3      3482       1    2485    2476    2484                        
CQUAD4      3483       1    2471    2472    2485    2484                
CQUAD4      3484       1    2483    2456    2457    2481                
CQUAD4      3485       1    2484    2483    2481    2482                
CQUAD4      3486       1    2470    2471    2484    2482                
CTRIA3      3487       2    2489    2467    2491                        
CQUAD4      3488       2    2487    2442    2489    2476                
CTRIA3      3489       2    2429    2487    2476                        
CTRIA3      3490       2    2489    2491    2476                        
ENDDATA
