ID FEMAP,FEMAP
SOL SESTATICS
TIME 10000
CEND
  ECHO = NONE
  DISPLACEMENT(PLOT) = ALL
  SPCFORCE(PLOT) = ALL
  OLOAD(PLOT) = ALL
  FORCE(PLOT,CORNER) = ALL
  STRESS(PLOT,CORNER) = ALL
BEGIN BULK
$ ***************************************************************************
$   Written by : FEMAP
$   Version    : 7.00
$   Translator : MSC/NASTRAN
$   From Model : 
$   Date       : Wed Feb 10 23:03:45 2010
$ ***************************************************************************
$
PARAM,POST,-1
PARAM,OGEOM,NO
PARAM,AUTOSPC,YES
PARAM,GRDPNT,0
CORD2C         1       0      0.      0.      0.      0.      0.      1.+FEMAPC1
+FEMAPC1      1.      0.      1.
CORD2S         2       0      0.      0.      0.      0.      0.      1.+FEMAPC2
+FEMAPC2      1.      0.      1.
$ FEMAP Load Set 111 : Inclusion BSOURCE 0.5 0.5 0.25 0.25 0.
$ FEMAP Property 1 : Untitled
PSHELL         1       1      0.       1      1.       1 0.83333      0.
$ FEMAP Property 2 : Untitled
PSHELL         2       1      0.       1      1.       1 0.83333      0.
$ FEMAP Material 1 : Untitled
MAT1           1     7.8     2.3     0.3      0.      0.      0.        
GRID           1       0     0.5     0.5      0.       0        
GRID           2       0     0.5 0.58333      0.       0        
GRID           3       0     0.5    0.75      0.       0        
GRID           4       0 0.32322 0.67678      0.       0        
GRID           5       0 0.42242 0.65335      0.       0        
GRID           6       0 0.42122 0.57844      0.       0        
GRID           7       0 0.34693 0.57786      0.       0        
GRID           8       0 0.36382 0.63573      0.       0        
GRID           9       0      0.      1.      0.       0        
GRID          10       0      0.     0.9      0.       0        
GRID          11       0      0.     0.8      0.       0        
GRID          12       0      0.     0.7      0.       0        
GRID          13       0      0.     0.6      0.       0        
GRID          14       0 0.16667     0.5      0.       0        
GRID          15       0    0.25     0.5      0.       0        
GRID          16       0 0.26903 0.59567      0.       0        
GRID          17       0 0.40433 0.73097      0.       0        
GRID          18       0     0.4      1.      0.       0        
GRID          19       0     0.3      1.      0.       0        
GRID          20       0     0.2      1.      0.       0        
$ ... 169 like lines cut
CQUAD4         1       2      48       3      17       5                
CQUAD4         2       2       2      48       5       6                
CQUAD4         3       2      97       1       2       6                
CQUAD4         4       2       5      17       4       8                
CQUAD4         5       2       8       4      16       7                
CQUAD4         6       2       6       5       8       7                
CQUAD4         7       2      96      97       6       7                
CQUAD4         8       2      15      96       7      16                
CQUAD4         9       1      14      15      16      26                
CQUAD4        10       1      26      27      29      32                
CQUAD4        11       1      32      29      30      31                
CQUAD4        12       1      14      26      32      31                
CQUAD4        13       1     110      14      31      30                
CQUAD4        14       1      30      29      33      34                
CQUAD4        15       1     109     110      30      34                
CQUAD4        16       1      13     109      34      33                
CQUAD4        17       1      33      29      27      28                
CQUAD4        18       1      12      13      33      28                
CQUAD4        19       1      17       3      64      22                
CQUAD4        20       1      22      23      36      39                
$ ... 148 like lines cut
ENDDATA
